2023-04-06T12:22:35,392  INFO Gbl:64 JVM: 17.0.6; Oracle Corporation; mixed mode, sharing; 64-bit
2023-04-06T12:22:35,392  INFO Gbl:68 OS: Windows 8.1; 6.3; amd64
2023-04-06T12:22:35,393  INFO Gbl:71 CPU cores: 8
2023-04-06T12:22:35,396  INFO Gbl:72 max. Memory: 4076.0MB (4273995776B)
2023-04-06T12:22:35,397  INFO Gbl:110 MATSim-Build: r0412ee560d975e0169e723292983035689c8b32d (2023-03-13 15:51:14)
2023-04-06T12:22:35,399  INFO ControlerListenerManagerImpl:108 calling notifyStartup on org.matsim.guice.DependencyGraphControlerListener
2023-04-06T12:22:35,401  INFO MemoryObserver:42 used RAM: 29 MB  free: 18 MB  total: 48 MB
2023-04-06T12:22:35,501  INFO ControlerListenerManagerImpl:108 calling notifyStartup on org.matsim.counts.CountsControlerListener
2023-04-06T12:22:35,502  INFO ControlerListenerManagerImpl:108 calling notifyStartup on org.matsim.analysis.ModeStatsControlerListener
2023-04-06T12:22:35,502  INFO ControlerListenerManagerImpl:108 calling notifyStartup on org.matsim.analysis.ScoreStatsControlerListener
2023-04-06T12:22:35,502  INFO ControlerListenerManagerImpl:111 all ControlerStartupListeners called.
2023-04-06T12:22:35,503  INFO ControlerUtils:80 config dump before iterations start
2023-04-06T12:22:35,518  INFO ControlerUtils:84 

<?xml version="1.0" encoding="UTF-8"?>
<!DOCTYPE config SYSTEM "http://www.matsim.org/files/dtd/config_v2.dtd">
<config>
	<module name="JDEQSim" >
		<param name="carSize" value="7.5" />
		<param name="endTime" value="undefined" />
		<param name="flowCapacityFactor" value="1.0" />
		<param name="gapTravelSpeed" value="15.0" />
		<param name="minimumInFlowCapacity" value="1800.0" />
		<param name="squeezeTime" value="1800.0" />
		<param name="storageCapacityFactor" value="1.0" />
	</module>
	<module name="Psafe" >
		<!-- Dmax_car -->
		<param name="Dmax_car_m" value="0.0" />
		<!-- Dmax_ebike -->
		<param name="Dmax_ebike_m" value="0.0" />
		<!-- Dmax_escoot -->
		<param name="Dmax_escoot_m" value="0.0" />
		<param name="Dmax_walk_m" value="0.0" />
		<param name="carMode" value="car" />
		<param name="ebikeMode" value="ebike" />
		<param name="escootMode" value="escoot" />
		<!-- inputPsafeThreshold -->
		<param name="inputPsafeThreshold_m" value="4" />
		<!-- marginalUtilityOfPerceivedSafety_car -->
		<param name="marginalUtilityOfPerceivedSafety_car_m" value="0.44" />
		<!-- marginalUtilityOfPerceivedSafety_car_sd -->
		<param name="marginalUtilityOfPerceivedSafety_car_m_sd" value="0.2" />
		<!-- marginalUtilityOfPerceivedSafety_ebike -->
		<param name="marginalUtilityOfPerceivedSafety_ebike_m" value="0.84" />
		<param name="marginalUtilityOfPerceivedSafety_ebike_m_sd" value="0.22" />
		<!-- marginalUtilityOfPerceivedSafety_escoot -->
		<param name="marginalUtilityOfPerceivedSafety_escoot_m" value="0.76" />
		<param name="marginalUtilityOfPerceivedSafety_escoot_m_sd" value="0.07" />
		<!-- marginalUtilityOfPerceivedSafety_walk -->
		<param name="marginalUtilityOfPerceivedSafety_walk_m" value="0.0" />
		<param name="marginalUtilityOfPerceivedSafety_walk_m_sd" value="0.17" />
		<param name="walkMode" value="walk" />
	</module>
	<module name="ReplanningAnnealer" >
		<!-- Activate the scaling of replanning modules using an annealing approach rather than fixed rates. -->
		<param name="activateAnnealingModule" value="false" />
	</module>
	<module name="TimeAllocationMutator" >
		<!-- Default:true; Defines whether time mutation changes an activity's duration. -->
		<param name="mutationAffectsDuration" value="true" />
		<!-- Default:1800.0; Defines how many seconds a time mutation can maximally shift a time. -->
		<param name="mutationRange" value="1800.0" />
	</module>
	<module name="changeMode" >
		<!-- Defines whether car availability is considered be considered or not. An agent has no car only if it has no license, or never access to a car. Default: true -->
		<param name="ignoreCarAvailability" value="true" />
		<!-- Defines the mode switch behavior. Possible values [fromAllModesToSpecifiedModes, fromSpecifiedModesToSpecifiedModes] Default: fromSpecifiedModesToSpecifiedModes. -->
		<param name="modeSwitchBehavior" value="fromSpecifiedModesToSpecifiedModes" />
		<!-- Defines all the modes available, including chain-based modes, seperated by commas -->
		<param name="modes" value="car,ebike,escoot" />
	</module>
	<module name="controler" >
		<!-- Defines what should be done with the ITERS directory when a simulation finished successfully -->
		<param name="cleanItersAtEnd" value="keep" />
		<!-- Compression algorithm to use when writing out data to files. Possible values: [none, gzip, lz4, zst] -->
		<param name="compressionType" value="gzip" />
		<!-- Sets whether graphs showing some analyses should automatically be generated during the simulation. The generation of graphs usually takes a small amount of time that does not have any weight in big simulations, but add a significant overhead in smaller runs or in test cases where the graphical output is not even requested. -->
		<param name="createGraphs" value="true" />
		<!-- Defines when the scoring functions for the population are created. Default=IterationStarts. Possible values: [IterationStarts, BeforeMobsim] -->
		<param name="createScoringFunctionType" value="IterationStarts" />
		<!-- true if at the end of a run, plans, network, config etc should be dumped to a file -->
		<param name="dumpDataAtEnd" value="true" />
		<!-- Default=false. If enabled, the router takes travel times needed for turning moves into account. Cannot be used if the (Fast)AStarLandmarks routing or TravelTimeCalculator.separateModes is enabled. -->
		<param name="enableLinkToLinkRouting" value="false" />
		<!-- Default=xml; Specifies the file format for writing events. Currently supported: [xml, pb, json]
		Multiple values can be specified separated by commas (','). -->
		<param name="eventsFileFormat" value="xml" />
		<!-- Default=0. First Iteration of a simulation. -->
		<param name="firstIteration" value="0" />
		<!-- Default=1000. Last Iteration of a simulation. -->
		<param name="lastIteration" value="100" />
		<!-- Defines which mobility simulation will be used. Currently supported: qsim JDEQSim hermes 
		Depending on the chosen mobsim, you'll have to add additional config modules to configure the corresponding mobsim.
		For 'qsim', add a module 'qsim' to the config. -->
		<param name="mobsim" value="qsim" />
		<param name="outputDirectory" value="./output" />
		<!-- Possible values: failIfDirectoryExists,overwriteExistingFiles,deleteDirectoryIfExists -->
		<param name="overwriteFiles" value="deleteDirectoryIfExists" />
		<!-- The type of routing (least cost path) algorithm used, may have the values: [Dijkstra, AStarLandmarks, FastDijkstra, FastAStarLandmarks, SpeedyALT] -->
		<param name="routingAlgorithmType" value="FastAStarLandmarks" />
		<!-- An identifier for the current run which is used as prefix for output files and mentioned in output xml files etc. -->
		<param name="runId" value="null" />
		<!-- Comma-separated list of visualizer output file formats. `transims' and `otfvis'. -->
		<param name="snapshotFormat" value="" />
		<!-- iterationNumber % writeEventsInterval == 0 defines in which iterations events are written to a file. `0' disables events writing completely. -->
		<param name="writeEventsInterval" value="1" />
		<!-- iterationNumber % writePlansInterval == 0 defines (hopefully) in which iterations plans are written to a file. `0' disables plans writing completely.  Some plans in early iterations are always written -->
		<param name="writePlansInterval" value="50" />
		<!-- iterationNumber % writeSnapshotsInterval == 0 defines in which iterations snapshots are written to a file. `0' disables snapshots writing completely -->
		<param name="writeSnapshotsInterval" value="1" />
		<!-- iterationNumber % writeEventsInterval == 0 defines in which iterations trips CSV are written to a file. `0' disables trips writing completely. -->
		<param name="writeTripsInterval" value="50" />
	</module>
	<module name="counts" >
		<!-- Transport modes that will be respected for the counts comparison. 'car' is default, which includes also bussed from the pt simulation module. Use this parameter in combination with 'filterModes' = true! -->
		<param name="analyzedModes" value="car" />
		<!-- Specifies over how many iterations the link volumes should be averaged that are used for the counts comparison. Use 1 or 0 to only use the link volumes of a single iteration. This values cannot be larger than the value specified for writeCountsInterval -->
		<param name="averageCountsOverIterations" value="5" />
		<!-- factor by which to re-scale the simulated values.  necessary when simulation runs with something different from 100%.  needs to be adapted manually -->
		<param name="countsScaleFactor" value="1.0" />
		<!-- distance to distanceFilterCenterNode to include counting stations. The unit of distance is the Euclidean distance implied by the coordinate system -->
		<param name="distanceFilter" value="null" />
		<!-- node id for center node of distance filter -->
		<param name="distanceFilterCenterNode" value="null" />
		<!-- If true, link counts from legs performed on modes not included in the 'analyzedModes' parameter are ignored. -->
		<param name="filterModes" value="false" />
		<!-- The Coordinates Reference System in which the coordinates are expressed in the input file. At import, the coordinates will be converted to the coordinate system defined in "global", and willbe converted back at export. If not specified, no conversion happens. -->
		<param name="inputCRS" value="null" />
		<!-- input file name to counts package -->
		<param name="inputCountsFile" value="null" />
		<!-- possible values: `html', `txt', `all' -->
		<param name="outputformat" value="txt" />
		<!-- Specifies how often the counts comparison should be calculated and written. -->
		<param name="writeCountsInterval" value="10" />
	</module>
	<module name="facilities" >
		<!-- This defines how facilities should be created. Possible values: none fromFile setInScenario onePerActivityLinkInPlansFile onePerActivityLinkInPlansFileExceptWhenCoordinatesAreGiven onePerActivityLocationInPlansFile  -->
		<param name="facilitiesSource" value="none" />
		<!-- A prefix to be used for auto-generated IDs. -->
		<param name="idPrefix" value="f_auto_" />
		<!-- The Coordinates Reference System in which the coordinates are expressed in the input file. At import, the coordinates will be converted to the coordinate system defined in "global", and willbe converted back at export. If not specified, no conversion happens. -->
		<param name="inputCRS" value="null" />
		<param name="inputFacilitiesFile" value="null" />
		<param name="inputFacilityAttributesFile" value="null" />
		<param name="insistingOnUsingDeprecatedFacilitiesAttributeFile" value="false" />
	</module>
	<module name="global" >
		<param name="coordinateSystem" value="Atlantis" />
		<param name="defaultDelimiter" value=";" />
		<param name="insistingOnDeprecatedConfigVersion" value="true" />
		<!-- "global" number of threads.  This number is used, e.g., for replanning, but NOT in QSim.  This can typically be set to as many cores as you have available, or possibly even slightly more. -->
		<param name="numberOfThreads" value="1" />
		<param name="randomSeed" value="4711" />
	</module>
	<module name="hermes" >
		<!-- Simulation End Time -->
		<param name="endTime" value="30:00:00" />
		<param name="flowCapacityFactor" value="1.0" />
		<param name="mainMode" value="car" />
		<param name="storageCapacityFactor" value="1.0" />
		<!-- time in seconds.  Time after which the frontmost vehicle on a link is called `stuck' if it does not move. Set to Integer.MAX_VALUE to disable this behavior -->
		<param name="stuckTime" value="10" />
		<!-- treats PT as deterministic. PT vehicles will run with a steady speed. Should be used with separate network layers for PT and other network modes. -->
		<param name="useDeterministicPt" value="false" />
	</module>
	<module name="households" >
		<param name="inputFile" value="null" />
		<param name="inputHouseholdAttributesFile" value="null" />
		<param name="insistingOnUsingDeprecatedHouseholdsAttributeFile" value="false" />
	</module>
	<module name="linkStats" >
		<!-- Specifies over how many iterations the link volumes should be averaged that are used for the link statistics. Use 1 or 0 to only use the link volumes of a single iteration. This values cannot be larger than the value specified for writeLinkStatsInterval -->
		<param name="averageLinkStatsOverIterations" value="5" />
		<!-- Specifies how often the link stats should be calculated and written. Use 0 to disable the generation of link stats. -->
		<param name="writeLinkStatsInterval" value="50" />
	</module>
	<module name="network" >
		<!-- The Coordinates Reference System in which the coordinates are expressed in the input file. At import, the coordinates will be converted to the coordinate system defined in "global", and willbe converted back at export. If not specified, no conversion happens. -->
		<param name="inputCRS" value="null" />
		<param name="inputChangeEventsFile" value="null" />
		<param name="inputNetworkFile" value="sim4mtran_psafest_scenario_1_ATHENS.xml" />
		<param name="laneDefinitionsFile" value="null" />
		<param name="timeVariantNetwork" value="false" />
	</module>
	<module name="parallelEventHandling" >
		<!-- Estimated number of events during mobsim run. An optional optimization hint for the framework. -->
		<param name="estimatedNumberOfEvents" value="null" />
		<!-- Size of the events Queue. Increase for very large scenarios -->
		<param name="eventsQueueSize" value="131072" />
		<!-- Number of threads for parallel events handler. _null_ means the framework decides by itself. 0 is currently not possible. -->
		<param name="numberOfThreads" value="null" />
		<!-- If enabled, each event handler is assigned to its own thread. Note that enabling this feature disabled the numberOfThreads option! This feature is still experimental! -->
		<param name="oneThreadPerHandler" value="false" />
		<!-- If enabled, it is ensured that all events that are created during a time step of the mobility simulation are processed before the next time step is simulated. E.g. neccessary when within-day replanning is used. -->
		<param name="synchronizeOnSimSteps" value="true" />
	</module>
	<module name="planCalcScore" >
		<!-- logit model scale parameter. default: 1.  Has name and default value for historical reasons (see Bryan Raney's phd thesis). -->
		<param name="BrainExpBeta" value="1.0" />
		<param name="PathSizeLogitBeta" value="1.0" />
		<!-- fraction of iterations at which MSA score averaging is started. The matsim theory department suggests to use this together with switching off choice set innovation (where a similar switch exists), but it has not been tested yet. -->
		<param name="fractionOfIterationsToStartScoreMSA" value="null" />
		<!-- new_score = (1-learningRate)*old_score + learningRate * score_from_mobsim.  learning rates close to zero emulate score averaging, but slow down initial convergence -->
		<param name="learningRate" value="1.0" />
		<!-- There used to be a plateau between duration=0 and duration=zeroUtilityDuration. This caused durations to evolve to zero once they were below zeroUtilityDuration, causing problems.  Only use this switch if you need to be backwards compatible with some old results.  (changed nov'13) -->
		<param name="usingOldScoringBelowZeroUtilityDuration" value="false" />
		<!-- write a plans file in each iteration directory which contains what each agent actually did, and the score it received. -->
		<param name="writeExperiencedPlans" value="false" />
		<parameterset type="scoringParameters" >
			<param name="earlyDeparture" value="-0.0" />
			<param name="lateArrival" value="-18.0" />
			<param name="marginalUtilityOfMoney" value="1.0" />
			<param name="performing" value="6.0" />
			<param name="subpopulation" value="null" />
			<param name="utilityOfLineSwitch" value="-1.0" />
			<param name="waiting" value="-0.0" />
			<param name="waitingPt" value="-6.0" />
			<parameterset type="activityParams" >
				<param name="activityType" value="dummy" />
				<param name="closingTime" value="undefined" />
				<param name="earliestEndTime" value="undefined" />
				<param name="latestStartTime" value="undefined" />
				<param name="minimalDuration" value="undefined" />
				<param name="openingTime" value="undefined" />
				<param name="priority" value="1.0" />
				<param name="scoringThisActivityAtAll" value="true" />
				<!-- typical duration of activity.  needs to be defined and non-zero.  in sec. -->
				<param name="typicalDuration" value="02:00:00" />
				<!-- method to compute score at typical duration.  Options: | uniform | relative | Use uniform for backwards compatibility (all activities same score; higher proba to drop long acts). -->
				<param name="typicalDurationScoreComputation" value="relative" />
			</parameterset>
			<parameterset type="activityParams" >
				<param name="activityType" value="car interaction" />
				<param name="closingTime" value="undefined" />
				<param name="earliestEndTime" value="undefined" />
				<param name="latestStartTime" value="undefined" />
				<param name="minimalDuration" value="undefined" />
				<param name="openingTime" value="undefined" />
				<param name="priority" value="1.0" />
				<param name="scoringThisActivityAtAll" value="false" />
				<param name="typicalDuration" value="undefined" />
				<param name="typicalDurationScoreComputation" value="relative" />
			</parameterset>
			<parameterset type="activityParams" >
				<param name="activityType" value="pt interaction" />
				<param name="closingTime" value="undefined" />
				<param name="earliestEndTime" value="undefined" />
				<param name="latestStartTime" value="undefined" />
				<param name="minimalDuration" value="undefined" />
				<param name="openingTime" value="undefined" />
				<param name="priority" value="1.0" />
				<param name="scoringThisActivityAtAll" value="false" />
				<param name="typicalDuration" value="undefined" />
				<param name="typicalDurationScoreComputation" value="relative" />
			</parameterset>
			<parameterset type="activityParams" >
				<param name="activityType" value="bike interaction" />
				<param name="closingTime" value="undefined" />
				<param name="earliestEndTime" value="undefined" />
				<param name="latestStartTime" value="undefined" />
				<param name="minimalDuration" value="undefined" />
				<param name="openingTime" value="undefined" />
				<param name="priority" value="1.0" />
				<param name="scoringThisActivityAtAll" value="false" />
				<param name="typicalDuration" value="undefined" />
				<param name="typicalDurationScoreComputation" value="relative" />
			</parameterset>
			<parameterset type="activityParams" >
				<param name="activityType" value="drt interaction" />
				<param name="closingTime" value="undefined" />
				<param name="earliestEndTime" value="undefined" />
				<param name="latestStartTime" value="undefined" />
				<param name="minimalDuration" value="undefined" />
				<param name="openingTime" value="undefined" />
				<param name="priority" value="1.0" />
				<param name="scoringThisActivityAtAll" value="false" />
				<param name="typicalDuration" value="undefined" />
				<param name="typicalDurationScoreComputation" value="relative" />
			</parameterset>
			<parameterset type="activityParams" >
				<param name="activityType" value="taxi interaction" />
				<param name="closingTime" value="undefined" />
				<param name="earliestEndTime" value="undefined" />
				<param name="latestStartTime" value="undefined" />
				<param name="minimalDuration" value="undefined" />
				<param name="openingTime" value="undefined" />
				<param name="priority" value="1.0" />
				<param name="scoringThisActivityAtAll" value="false" />
				<param name="typicalDuration" value="undefined" />
				<param name="typicalDurationScoreComputation" value="relative" />
			</parameterset>
			<parameterset type="activityParams" >
				<param name="activityType" value="other interaction" />
				<param name="closingTime" value="undefined" />
				<param name="earliestEndTime" value="undefined" />
				<param name="latestStartTime" value="undefined" />
				<param name="minimalDuration" value="undefined" />
				<param name="openingTime" value="undefined" />
				<param name="priority" value="1.0" />
				<param name="scoringThisActivityAtAll" value="false" />
				<param name="typicalDuration" value="undefined" />
				<param name="typicalDurationScoreComputation" value="relative" />
			</parameterset>
			<parameterset type="activityParams" >
				<param name="activityType" value="walk interaction" />
				<param name="closingTime" value="undefined" />
				<param name="earliestEndTime" value="undefined" />
				<param name="latestStartTime" value="undefined" />
				<param name="minimalDuration" value="undefined" />
				<param name="openingTime" value="undefined" />
				<param name="priority" value="1.0" />
				<param name="scoringThisActivityAtAll" value="false" />
				<param name="typicalDuration" value="undefined" />
				<param name="typicalDurationScoreComputation" value="relative" />
			</parameterset>
			<parameterset type="activityParams" >
				<param name="activityType" value="home" />
				<param name="closingTime" value="undefined" />
				<param name="earliestEndTime" value="undefined" />
				<param name="latestStartTime" value="undefined" />
				<param name="minimalDuration" value="undefined" />
				<param name="openingTime" value="undefined" />
				<param name="priority" value="1.0" />
				<param name="scoringThisActivityAtAll" value="true" />
				<param name="typicalDuration" value="12:00:00" />
				<param name="typicalDurationScoreComputation" value="relative" />
			</parameterset>
			<parameterset type="activityParams" >
				<param name="activityType" value="work" />
				<param name="closingTime" value="undefined" />
				<param name="earliestEndTime" value="undefined" />
				<param name="latestStartTime" value="undefined" />
				<param name="minimalDuration" value="undefined" />
				<param name="openingTime" value="undefined" />
				<param name="priority" value="1.0" />
				<param name="scoringThisActivityAtAll" value="true" />
				<param name="typicalDuration" value="08:00:00" />
				<param name="typicalDurationScoreComputation" value="relative" />
			</parameterset>
			<parameterset type="activityParams" >
				<param name="activityType" value="ebike interaction" />
				<param name="closingTime" value="undefined" />
				<param name="earliestEndTime" value="undefined" />
				<param name="latestStartTime" value="undefined" />
				<param name="minimalDuration" value="undefined" />
				<param name="openingTime" value="undefined" />
				<param name="priority" value="1.0" />
				<param name="scoringThisActivityAtAll" value="false" />
				<param name="typicalDuration" value="undefined" />
				<param name="typicalDurationScoreComputation" value="relative" />
			</parameterset>
			<parameterset type="activityParams" >
				<param name="activityType" value="escoot interaction" />
				<param name="closingTime" value="undefined" />
				<param name="earliestEndTime" value="undefined" />
				<param name="latestStartTime" value="undefined" />
				<param name="minimalDuration" value="undefined" />
				<param name="openingTime" value="undefined" />
				<param name="priority" value="1.0" />
				<param name="scoringThisActivityAtAll" value="false" />
				<param name="typicalDuration" value="undefined" />
				<param name="typicalDurationScoreComputation" value="relative" />
			</parameterset>
			<parameterset type="activityParams" >
				<param name="activityType" value="ride interaction" />
				<param name="closingTime" value="undefined" />
				<param name="earliestEndTime" value="undefined" />
				<param name="latestStartTime" value="undefined" />
				<param name="minimalDuration" value="undefined" />
				<param name="openingTime" value="undefined" />
				<param name="priority" value="1.0" />
				<param name="scoringThisActivityAtAll" value="false" />
				<param name="typicalDuration" value="undefined" />
				<param name="typicalDurationScoreComputation" value="relative" />
			</parameterset>
			<parameterset type="modeParams" >
				<!-- [utils] alternative-specific constant.  Normally per trip, but that is probably buggy for multi-leg trips. -->
				<param name="constant" value="0.0" />
				<!-- [unit_of_money/day] Fixed cost of mode, per day. -->
				<param name="dailyMonetaryConstant" value="0.0" />
				<!-- [utils] daily utility constant. default=0 to be backwards compatible -->
				<param name="dailyUtilityConstant" value="0.0" />
				<!-- [utils/m] utility of traveling (e.g. walking or driving) per m, normally negative.  this is on top of the time (dis)utility. -->
				<param name="marginalUtilityOfDistance_util_m" value="0.0" />
				<!-- [utils/hr] additional marginal utility of traveling.  normally negative.  this comes on top of the opportunity cost of time -->
				<param name="marginalUtilityOfTraveling_util_hr" value="-6.0" />
				<param name="mode" value="pt" />
				<!-- [unit_of_money/m] conversion of distance into money. Normally negative. -->
				<param name="monetaryDistanceRate" value="0.0" />
			</parameterset>
			<parameterset type="modeParams" >
				<param name="constant" value="0.0" />
				<param name="dailyMonetaryConstant" value="0.0" />
				<param name="dailyUtilityConstant" value="0.0" />
				<param name="marginalUtilityOfDistance_util_m" value="0.0" />
				<param name="marginalUtilityOfTraveling_util_hr" value="-6.0" />
				<param name="mode" value="walk" />
				<param name="monetaryDistanceRate" value="0.0" />
			</parameterset>
			<parameterset type="modeParams" >
				<param name="constant" value="0.0" />
				<param name="dailyMonetaryConstant" value="0.0" />
				<param name="dailyUtilityConstant" value="0.0" />
				<param name="marginalUtilityOfDistance_util_m" value="0.0" />
				<param name="marginalUtilityOfTraveling_util_hr" value="-6.0" />
				<param name="mode" value="bike" />
				<param name="monetaryDistanceRate" value="0.0" />
			</parameterset>
			<parameterset type="modeParams" >
				<param name="constant" value="0.0" />
				<param name="dailyMonetaryConstant" value="0.0" />
				<param name="dailyUtilityConstant" value="0.0" />
				<param name="marginalUtilityOfDistance_util_m" value="0.0" />
				<param name="marginalUtilityOfTraveling_util_hr" value="-6.0" />
				<param name="mode" value="ride" />
				<param name="monetaryDistanceRate" value="0.0" />
			</parameterset>
			<parameterset type="modeParams" >
				<param name="constant" value="0.0" />
				<param name="dailyMonetaryConstant" value="0.0" />
				<param name="dailyUtilityConstant" value="0.0" />
				<param name="marginalUtilityOfDistance_util_m" value="0.0" />
				<param name="marginalUtilityOfTraveling_util_hr" value="-6.0" />
				<param name="mode" value="other" />
				<param name="monetaryDistanceRate" value="0.0" />
			</parameterset>
			<parameterset type="modeParams" >
				<param name="constant" value="0.0" />
				<param name="dailyMonetaryConstant" value="0.0" />
				<param name="dailyUtilityConstant" value="0.0" />
				<param name="marginalUtilityOfDistance_util_m" value="-4.2E-5" />
				<param name="marginalUtilityOfTraveling_util_hr" value="-1.8" />
				<param name="mode" value="car" />
				<param name="monetaryDistanceRate" value="0.0" />
			</parameterset>
			<parameterset type="modeParams" >
				<param name="constant" value="0.1" />
				<param name="dailyMonetaryConstant" value="0.0" />
				<param name="dailyUtilityConstant" value="0.0" />
				<param name="marginalUtilityOfDistance_util_m" value="-1.12E-4" />
				<param name="marginalUtilityOfTraveling_util_hr" value="-2.4" />
				<param name="mode" value="ebike" />
				<param name="monetaryDistanceRate" value="0.0" />
			</parameterset>
			<parameterset type="modeParams" >
				<param name="constant" value="-0.41" />
				<param name="dailyMonetaryConstant" value="0.0" />
				<param name="dailyUtilityConstant" value="0.0" />
				<param name="marginalUtilityOfDistance_util_m" value="-2.484E-4" />
				<param name="marginalUtilityOfTraveling_util_hr" value="-3.0" />
				<param name="mode" value="escoot" />
				<param name="monetaryDistanceRate" value="0.0" />
			</parameterset>
		</parameterset>
	</module>
	<module name="plans" >
		<!-- String: minOfDurationAndEndTime tryEndTimeThenDuration endTimeOnly. Anything besides minOfDurationAndEndTime will internally use a different (simpler) version of the TimeAllocationMutator. -->
		<param name="activityDurationInterpretation" value="tryEndTimeThenDuration" />
		<!-- Possible values: reject,useMainModeIdentifier -->
		<param name="handlingOfPlansWithoutRoutingMode" value="reject" />
		<!-- The Coordinates Reference System in which the coordinates are expressed in the input file. At import, the coordinates will be converted to the coordinate system defined in "global", and willbe converted back at export. If not specified, no conversion happens. -->
		<param name="inputCRS" value="null" />
		<param name="inputPersonAttributesFile" value="null" />
		<param name="inputPlansFile" value="population_1200_5000_to_2000.xml" />
		<param name="insistingOnUsingDeprecatedPersonAttributeFile" value="false" />
		<!-- Defines how routes are stored in memory. Currently supported: LinkNetworkRoute, MediumCompressedNetworkRoute, HeavyCompressedNetworkRoute. -->
		<param name="networkRouteType" value="LinkNetworkRoute" />
		<!-- (not tested) will remove plan attributes that are presumably not used, such as activityStartTime. default=false. Use with Caution! -->
		<param name="removingUnnecessaryPlanAttributes" value="false" />
		<!-- Defines how departure times are interpreted in rerouting applications. If set to 'ignoreDelays', the departure time of a trip when routing along a plan will always be the nominal (plan-based) activity end time. If set to 'shiftActivityEndTimes', routing along a plan will accumulate travel times and shift activity end times if necessary -->
		<param name="tripDurationHandling" value="ignoreDelays" />
	</module>
	<module name="planscalcroute" >
		<!-- Defines how access and egress to main mode is simulated. Either of [none, accessEgressModeToLink, walkConstantTimeToLink, accessEgressModeToLinkPlusTimeConstant], Current default=none which means no access or egress trips are simulated. -->
		<param name="accessEgressType" value="none" />
		<!-- Some typical teleportation routing params are set by default, such as for walk and bike.  Setting this switch to "true" will clear them.  Note that this will also clear settings for helper modes such as for non_network_walk -->
		<param name="clearDefaultTeleportedModeParams" value="false" />
		<!-- All the modes for which the router is supposed to generate network routes (like car) -->
		<param name="networkModes" value="car,ebike,escoot" />
		<!-- strength of the randomness for the utility of money in routing under toll.  Leads to Pareto-optimal route with randomly drawn money-vs-other-attributes tradeoff. Technically the width parameter of a log-normal distribution. 3.0 seems to be a good value.  -->
		<param name="routingRandomness" value="3.0" />
		<parameterset type="teleportedModeParameters" >
			<param name="beelineDistanceFactor" value="1.3" />
			<param name="mode" value="bike" />
			<!-- Free-speed factor for a teleported mode. Travel time = teleportedModeFreespeedFactor * <freespeed car travel time>. Insert a line like this for every such mode. Please do not set teleportedModeFreespeedFactor as well as teleportedModeSpeed for the same mode, but if you do, +teleportedModeFreespeedFactor wins over teleportedModeSpeed. -->
			<param name="teleportedModeFreespeedFactor" value="null" />
			<!-- Speed for a teleported mode. Travel time = (<beeline distance> * beelineDistanceFactor) / teleportedModeSpeed. Insert a line like this for every such mode. -->
			<param name="teleportedModeSpeed" value="4.166666666666667" />
		</parameterset>
		<parameterset type="teleportedModeParameters" >
			<param name="beelineDistanceFactor" value="1.3" />
			<param name="mode" value="walk" />
			<param name="teleportedModeFreespeedFactor" value="null" />
			<param name="teleportedModeSpeed" value="0.8333333333333333" />
		</parameterset>
		<parameterset type="teleportedModeParameters" >
			<param name="beelineDistanceFactor" value="1.3" />
			<param name="mode" value="non_network_walk" />
			<param name="teleportedModeFreespeedFactor" value="null" />
			<param name="teleportedModeSpeed" value="0.8333333333333333" />
		</parameterset>
		<parameterset type="teleportedModeParameters" >
			<param name="beelineDistanceFactor" value="1.3" />
			<param name="mode" value="ride" />
			<param name="teleportedModeFreespeedFactor" value="1.0" />
			<param name="teleportedModeSpeed" value="null" />
		</parameterset>
		<parameterset type="teleportedModeParameters" >
			<param name="beelineDistanceFactor" value="1.3" />
			<param name="mode" value="pt" />
			<param name="teleportedModeFreespeedFactor" value="2.0" />
			<param name="teleportedModeSpeed" value="null" />
		</parameterset>
	</module>
	<module name="ptCounts" >
		<!-- factor by which to re-scale the simulated values.  necessary when simulation runs with something different from 100%.  needs to be adapted manually -->
		<param name="countsScaleFactor" value="1.0" />
		<!-- distance to distanceFilterCenterNode to include counting stations. The unit of distance is the Euclidean distance implied by the coordinate system -->
		<param name="distanceFilter" value="null" />
		<!-- node id for center node of distance filter -->
		<param name="distanceFilterCenterNode" value="null" />
		<!-- input file containing the alighting (getting off) counts for pt -->
		<param name="inputAlightCountsFile" value="null" />
		<!-- input file containing the boarding (getting on) counts for pt -->
		<param name="inputBoardCountsFile" value="null" />
		<!-- input file containing the occupancy counts for pt -->
		<param name="inputOccupancyCountsFile" value="null" />
		<!-- possible values: `html', `txt', `all' -->
		<param name="outputformat" value="null" />
		<!-- every how many iterations (starting with 0) counts comparisons are generated -->
		<param name="ptCountsInterval" value="10" />
	</module>
	<module name="qsim" >
		<param name="endTime" value="undefined" />
		<!-- If set to withLinkAttributes snapshots will only be generated for links which include generateSnapshotForLink as attribute key. Default is no filtering. -->
		<param name="filterSnapshots" value="no" />
		<param name="flowCapacityFactor" value="1.0" />
		<!-- decides if waiting vehicles enter the network after or before the already driving vehicles were moved. Default: false -->
		<param name="insertingWaitingVehiclesBeforeDrivingVehicles" value="true" />
		<!-- If link dynamics is set as SeepageQ, set to false if all seep modes should perform seepage. Default is true (better option). -->
		<param name="isRestrictingSeepage" value="true" />
		<!-- If link dynamics is set as SeepageQ, set to true if seep mode do not consumes any space on the link. Default is false. -->
		<param name="isSeepModeStorageFree" value="false" />
		<!-- default: FIFO; options: FIFO PassingQ SeepageQ -->
		<param name="linkDynamics" value="FIFO" />
		<!-- The (initial) width of the links of the network. Use positive floating point values. This is used only for visualisation. -->
		<param name="linkWidth" value="30.0" />
		<!-- [comma-separated list] Defines which modes are congested modes. Technically, these are the modes that the departure handler of the netsimengine handles.  Effective cell size, effective lane width, flow capacity factor, and storage capacity factor need to be set with diligence.  Need to be vehicular modes to make sense. -->
		<param name="mainMode" value="escoot,car,ebike" />
		<!-- Shortens a link in the visualization, i.e. its start and end point are moved into towards the center. Does not affect traffic flow.  -->
		<param name="nodeOffset" value="0.0" />
		<!-- Number of threads used for the QSim.  Note that this setting is independent from the "global" threads setting.  In contrast to earlier versions, the non-parallel special version is no longer there. -->
		<param name="numberOfThreads" value="1" />
		<!-- Boolean. `true': stuck vehicles are removed, aborting the plan; `false': stuck vehicles are forced into the next link. `false' is probably the better choice. -->
		<param name="removeStuckVehicles" value="false" />
		<!-- If link dynamics is set as SeepageQ, set a seep mode. Default is bike. -->
		<param name="seepMode" value="bike" />
		<!-- Possible values: minOfEndtimeAndMobsimFinished,onlyUseEndtime -->
		<param name="simEndtimeInterpretation" value="null" />
		<!-- Options: maxOfStarttimeAndEarliestActivityEnd onlyUseStarttime  -->
		<param name="simStarttimeInterpretation" value="maxOfStarttimeAndEarliestActivityEnd" />
		<!-- snapshotStyle. One of: equiDist queue withHoles withHolesAndShowHoles kinematicWaves  -->
		<param name="snapshotStyle" value="queue" />
		<param name="snapshotperiod" value="00:00:00" />
		<param name="startTime" value="undefined" />
		<param name="storageCapacityFactor" value="1.0" />
		<!-- time in seconds.  Time after which the frontmost vehicle on a link is called `stuck' if it does not move. -->
		<param name="stuckTime" value="10.0" />
		<param name="timeStepSize" value="00:00:01" />
		<!-- options: queue withHoles kinematicWaves  -->
		<param name="trafficDynamics" value="queue" />
		<!-- Set this parameter to true if lanes should be used, false if not. -->
		<param name="useLanes" value="false" />
		<!-- If a route does not reference a vehicle, agents will use the vehicle with the same id as their own. -->
		<param name="usePersonIdForMissingVehicleId" value="true" />
		<!-- If false, the qsim accumulates fractional flows up to one flow unit in every time step.  If true, flows are updated only if an agent wants to enter the link or an agent is added to buffer. Default is true. -->
		<param name="usingFastCapacityUpdate" value="true" />
		<!-- Defines what happens if an agent wants to depart, but the specified vehicle is not available. One of: teleport wait exception  -->
		<param name="vehicleBehavior" value="teleport" />
		<!-- If vehicles should all be the same default vehicle, or come from the vehicles file, or something else.  Possible values:  defaultVehicle modeVehicleTypesFromVehiclesData fromVehiclesData -->
		<param name="vehiclesSource" value="modeVehicleTypesFromVehiclesData" />
	</module>
	<module name="strategy" >
		<!-- the external executable will be called with a config file as argument.  This is the pathname to a possible skeleton config, to which additional information will be added.  Can be null. -->
		<param name="ExternalExeConfigTemplate" value="null" />
		<!-- time out value (in seconds) after which matsim will consider the external strategy as failed -->
		<param name="ExternalExeTimeOut" value="3600" />
		<!-- root directory for temporary files generated by the external executable. Provided as a service; I don't think this is used by MATSim. -->
		<param name="ExternalExeTmpFileRootDir" value="null" />
		<!-- fraction of iterations where innovative strategies are switched off.  Something like 0.8 should be good.  E.g. if you run from iteration 400 to iteration 500, innovation is switched off at iteration 480 -->
		<param name="fractionOfIterationsToDisableInnovation" value="Infinity" />
		<!-- maximum number of plans per agent.  ``0'' means ``infinity''.  Currently (2010), ``5'' is a good number -->
		<param name="maxAgentPlanMemorySize" value="5" />
		<!-- strategyName of PlanSelector for plans removal.  Possible defaults: WorstPlanSelector SelectRandom SelectExpBetaForRemoval ChangeExpBetaForRemoval PathSizeLogitSelectorForRemoval . The current default, WorstPlanSelector is not a good choice from a discrete choice theoretical perspective. Alternatives, however, have not been systematically tested. kai, feb'12 -->
		<param name="planSelectorForRemoval" value="WorstPlanSelector" />
		<parameterset type="strategysettings" >
			<!-- iteration after which strategy will be disabled.  most useful for ``innovative'' strategies (new routes, new times, ...). Normally, better use fractionOfIterationsToDisableInnovation -->
			<param name="disableAfterIteration" value="-1" />
			<!-- path to external executable (if applicable) -->
			<param name="executionPath" value="null" />
			<!-- strategyName of strategy.  Possible default names: SelectRandom BestScore KeepLastSelected ChangeExpBeta SelectExpBeta SelectPathSizeLogit      (selectors), ReRouteTimeAllocationMutatorTimeAllocationMutator_ReRouteChangeSingleTripModeChangeTripModeSubtourModeChoice (innovative strategies). -->
			<param name="strategyName" value="ChangeExpBeta" />
			<!-- subpopulation to which the strategy applies. "null" refers to the default population, that is, the set of persons for which no explicit subpopulation is defined (ie no subpopulation attribute) -->
			<param name="subpopulation" value="null" />
			<!-- weight of a strategy: for each agent, a strategy will be selected with a probability proportional to its weight -->
			<param name="weight" value="0.8" />
		</parameterset>
		<parameterset type="strategysettings" >
			<param name="disableAfterIteration" value="-1" />
			<param name="executionPath" value="null" />
			<param name="strategyName" value="ReRoute" />
			<param name="subpopulation" value="null" />
			<param name="weight" value="0.05" />
		</parameterset>
		<parameterset type="strategysettings" >
			<param name="disableAfterIteration" value="-1" />
			<param name="executionPath" value="null" />
			<param name="strategyName" value="ChangeTripMode" />
			<param name="subpopulation" value="null" />
			<param name="weight" value="0.15" />
		</parameterset>
	</module>
	<module name="subtourModeChoice" >
		<!-- Only for backwards compatibility.  Defines if only trips from modes list should change mode, or all trips.  Options: fromAllModesToSpecifiedModes fromSpecifiedModesToSpecifiedModes betweenAllAndFewerConstraints  -->
		<param name="behavior" value="fromSpecifiedModesToSpecifiedModes" />
		<!-- Defines the chain-based modes, seperated by commas -->
		<param name="chainBasedModes" value="car,bike" />
		<!-- Defines whether car availability must be considered or not. A agent has no car only if it has no license, or never access to a car -->
		<param name="considerCarAvailability" value="false" />
		<!-- If greater than 0, subtours will also consider coordinates to be at the same location when smaller than set distance. -->
		<param name="coordDistance" value="0.0" />
		<!-- Defines all the modes available, including chain-based modes, seperated by commas -->
		<param name="modes" value="car,pt,bike,walk" />
		<!-- Defines the probability of changing a single trip for a unchained mode instead of subtour. -->
		<param name="probaForRandomSingleTripMode" value="0.0" />
	</module>
	<module name="transit" >
		<!-- The Coordinates Reference System in which the coordinates are expressed in the input file. At import, the coordinates will be converted to the coordinate system defined in "global", and willbe converted back at export. If not specified, no conversion happens. -->
		<param name="inputScheduleCRS" value="null" />
		<param name="insistingOnUsingDeprecatedAttributeFiles" value="false" />
		<!-- The type of transit routing algorithm used, may have the values: [DijkstraBased, SwissRailRaptor] -->
		<param name="routingAlgorithmType" value="SwissRailRaptor" />
		<!-- Optional input file containing additional attributes for transit lines, stored as ObjectAttributes. -->
		<param name="transitLinesAttributesFile" value="null" />
		<!-- Comma-separated list of transportation modes that are handled as transit. Defaults to 'pt'. -->
		<param name="transitModes" value="pt" />
		<!-- Input file containing the transit schedule to be simulated. -->
		<param name="transitScheduleFile" value="null" />
		<!-- Optional input file containing additional attributes for transit stop facilities, stored as ObjectAttributes. -->
		<param name="transitStopsAttributesFile" value="null" />
		<!-- Set this parameter to true if transit should be simulated, false if not. -->
		<param name="useTransit" value="false" />
		<param name="usingTransitInMobsim" value="true" />
		<!-- Input file containing the vehicles used by the departures in the transit schedule. -->
		<param name="vehiclesFile" value="null" />
	</module>
	<module name="transitRouter" >
		<!-- additional time the router allocates when a line switch happens. Can be interpreted as a 'safety' time that agents need to safely transfer from one line to another -->
		<param name="additionalTransferTime" value="0.0" />
		<!-- Factor with which direct walk generalized cost is multiplied before it is compared to the pt generalized cost.  Set to a very high value to reduce direct walk results. -->
		<param name="directWalkFactor" value="1.0" />
		<!-- step size to increase searchRadius if no stops are found -->
		<param name="extensionRadius" value="200.0" />
		<!-- maximum beeline distance between stops that agents could transfer to by walking -->
		<param name="maxBeelineWalkConnectionDistance" value="100.0" />
		<!-- the radius in which stop locations are searched, given a start or target coordinate -->
		<param name="searchRadius" value="1000.0" />
	</module>
	<module name="travelTimeCalculator" >
		<!-- (only for backwards compatibility; only used if separateModes==false && + filterModes==true)  Transport modes that will be respected by the travel time collector. 'car' is default which includes also buses from the pt simulation module. -->
		<param name="analyzedModes" value="car" />
		<param name="calculateLinkToLinkTravelTimes" value="false" />
		<param name="calculateLinkTravelTimes" value="true" />
		<!-- (only for backwards compatiblity; only used if separateModes==false)  Only modes included in analyzedModes are included. -->
		<param name="filterModes" value="false" />
		<!-- The lenght (in sec) of the time period that is splited into time bins; an additional time bin is created to aggregate all travel times collected after maxTime -->
		<param name="maxTime" value="108000" />
		<!-- (only for backwards compatibility) If false, link travel times are measured and aggregated over all vehicles using the link. -->
		<param name="separateModes" value="true" />
		<!-- How to deal with congested time bins that have no link entry events. `optimistic' assumes free speed (too optimistic); 'experimental_LastMile' is experimental and probably too pessimistic. -->
		<param name="travelTimeAggregator" value="optimistic" />
		<!-- The size of the time bin (in sec) into which the link travel times are aggregated for the router -->
		<param name="travelTimeBinSize" value="900" />
		<!-- possible values: TravelTimeCalculatorArray TravelTimeCalculatorHashMap  -->
		<param name="travelTimeCalculator" value="TravelTimeCalculatorArray" />
		<!-- How to deal with link entry times at different positions during the time bin. Currently supported: average, linearinterpolation -->
		<param name="travelTimeGetter" value="average" />
	</module>
	<module name="vehicles" >
		<param name="vehiclesFile" value="null" />
	</module>
	<module name="vspExperimental" >
		<!-- (do not use except of you have to) There was a problem with pt interaction scoring.  Some people solved it by overwriting the parameters of the pt interaction activity type.  Doing this now throws an Exception.  If you still insist on doing this, set the following to true. -->
		<param name="isAbleToOverwritePtInteractionParams" value="false" />
		<param name="isGeneratingBoardingDeniedEvent" value="false" />
		<!-- if an approximation of the opportunity cost of time is included into the radius calculation for location choice.`true' will be faster, but it is an approximation.  Default is `true'; `false' is available for backwards compatibility. -->
		<param name="isUsingOpportunityCostOfTimeForLocationChoice" value="true" />
		<param name="logitScaleParamForPlansRemoval" value="1.0" />
		<!-- Options: | ignore | info | warn | abort | .  When violating VSP defaults, this results in nothing, logfile infos, logfile warnings, or aborts.  Members of VSP should use `abort' or talk to kai. -->
		<param name="vspDefaultsCheckingLevel" value="ignore" />
		<!-- if true then writes output_events in output directory.  default is `false'. Will only work when lastIteration is multiple of events writing interval -->
		<param name="writingOutputEvents" value="true" />
	</module>

</config>

2023-04-06T12:22:35,519  INFO ControlerUtils:85 Complete config dump done.
2023-04-06T12:22:35,519  INFO ControlerUtils:86 Checking consistency of config...
2023-04-06T12:22:35,520  INFO PlanCalcScoreConfigGroup$ScoringParameterSet:1555 NO OPENING OR CLOSING TIMES DEFINED!

There is no activity type that has an opening *and* closing time (or opening time and late penalty) defined.
This usually means that the activity chains can be shifted by an arbitrary
number of hours without having an effect on the score of the plans, and thus
resulting in wrong results / traffic patterns.
If you are using MATSim without time adaptation, you can ignore this warning.


2023-04-06T12:22:35,520  INFO VspConfigConsistencyCheckerImpl:64 NOT running vsp config consistency check because vsp defaults checking level is set to IGNORE
2023-04-06T12:22:35,522  INFO ControlerUtils:88 Checking consistency of config done.
2023-04-06T12:22:35,523  INFO PrepareForSimImpl:122 Network seems to be multimodal. Create car-only network which is handed over to PersonPrepareForSim.
2023-04-06T12:22:35,525  INFO NetworkImpl:165  node # 1
2023-04-06T12:22:35,525  INFO NetworkImpl:165  node # 4
2023-04-06T12:22:35,525  INFO NetworkImpl:165  node # 16
2023-04-06T12:22:35,525  INFO NetworkImpl:165  node # 64
2023-04-06T12:22:35,526  INFO NetworkImpl:165  node # 256
2023-04-06T12:22:35,527  INFO NetworkImpl:161  link # 1
2023-04-06T12:22:35,528  INFO NetworkImpl:161  link # 4
2023-04-06T12:22:35,528  INFO NetworkImpl:161  link # 16
2023-04-06T12:22:35,529  INFO NetworkImpl:161  link # 64
2023-04-06T12:22:35,531  INFO NetworkImpl:161  link # 256
2023-04-06T12:22:35,540  INFO Counter:70 [VehiclesImpl] added vehicle # 1
2023-04-06T12:22:35,540  WARN PrepareForSimImpl:229 'usePersonIdForMissingVehicleId' is deprecated. It will be removed soon.
2023-04-06T12:22:35,541  INFO Counter:70 [VehiclesImpl] added vehicle # 2
2023-04-06T12:22:35,541  INFO Counter:70 [VehiclesImpl] added vehicle # 4
2023-04-06T12:22:35,541  INFO Counter:70 [VehiclesImpl] added vehicle # 8
2023-04-06T12:22:35,542  INFO Counter:70 [VehiclesImpl] added vehicle # 16
2023-04-06T12:22:35,542  INFO Counter:70 [VehiclesImpl] added vehicle # 32
2023-04-06T12:22:35,543  INFO Counter:70 [VehiclesImpl] added vehicle # 64
2023-04-06T12:22:35,543  INFO Counter:70 [VehiclesImpl] added vehicle # 128
2023-04-06T12:22:35,545  INFO Counter:70 [VehiclesImpl] added vehicle # 256
2023-04-06T12:22:35,547  INFO Counter:70 [VehiclesImpl] added vehicle # 512
2023-04-06T12:22:35,549  INFO Counter:70 [VehiclesImpl] added vehicle # 1024
2023-04-06T12:22:35,553  INFO Counter:70 [VehiclesImpl] added vehicle # 2048
2023-04-06T12:22:35,570  INFO NetworkImpl:165  node # 1
2023-04-06T12:22:35,570  INFO NetworkImpl:165  node # 4
2023-04-06T12:22:35,570  INFO NetworkImpl:165  node # 16
2023-04-06T12:22:35,571  INFO NetworkImpl:165  node # 64
2023-04-06T12:22:35,571  INFO NetworkImpl:165  node # 256
2023-04-06T12:22:35,571  INFO NetworkImpl:161  link # 1
2023-04-06T12:22:35,571  INFO NetworkImpl:161  link # 4
2023-04-06T12:22:35,572  INFO NetworkImpl:161  link # 16
2023-04-06T12:22:35,572  INFO NetworkImpl:161  link # 64
2023-04-06T12:22:35,574  INFO NetworkImpl:161  link # 256
2023-04-06T12:22:35,576  WARN RandomizingTimeDistanceTravelDisutilityFactory:113 There will be no routing randomness. The randomization of the travel disutility requires the monetary distance rate to be different than zero. Continuing anyway.
2023-04-06T12:22:35,577  INFO RandomizingTimeDistanceTravelDisutilityFactory:86  sigma: 3.0; resulting normalization: 0.011108996538242306
2023-04-06T12:22:35,599  INFO PreProcessDijkstra:119 nodes in dead ends: 29 (total nodes: 253). Done in 1 ms
2023-04-06T12:22:35,599  WARN PreProcessEuclidean:60 There are links with stored length smaller than their Euclidean distance in this network. Thus, A* cannot guarantee to calculate the least-cost paths between two nodes.
2023-04-06T12:22:35,599  INFO PreProcessLandmarks:113 Putting landmarks on network...
2023-04-06T12:22:35,600  INFO LandmarkerPieSlices:97 Filling sectors...
2023-04-06T12:22:35,602  INFO LandmarkerPieSlices:108 Refining landmarks...
2023-04-06T12:22:35,604  WARN CoordUtils$EucledianDistanceCalculator:405 Mixed use of elevation in coordinates: [x=475561.4425 | y=4202730.352]; [x=474683.953 | y=4203036.963 | z=0.0]
2023-04-06T12:22:35,605  WARN CoordUtils$EucledianDistanceCalculator:407 Returning projected coordinate distance (using x and y components only)
2023-04-06T12:22:35,605  WARN CoordUtils$EucledianDistanceCalculator:405 Mixed use of elevation in coordinates: [x=475561.4425 | y=4202730.352]; [x=474160.918 | y=4202630.638 | z=0.0]
2023-04-06T12:22:35,605  WARN CoordUtils$EucledianDistanceCalculator:407 Returning projected coordinate distance (using x and y components only)
2023-04-06T12:22:35,605  INFO LandmarkerPieSlices:110 done
2023-04-06T12:22:35,605  INFO PreProcessLandmarks:116 done in 6 ms
2023-04-06T12:22:35,605  INFO PreProcessLandmarks:118 Initializing landmarks data
2023-04-06T12:22:35,607  INFO PreProcessLandmarks:130 Calculating distance from each node to each of the 16 landmarks using 2 threads...
2023-04-06T12:22:35,608  INFO PreProcessLandmarks:140 wait for landmarks Calculator to finish...
2023-04-06T12:22:35,619  INFO PreProcessLandmarks:164 done in 12 ms
2023-04-06T12:22:35,627  INFO PreProcessDijkstra:119 nodes in dead ends: 12 (total nodes: 257). Done in 1 ms
2023-04-06T12:22:35,627  WARN PreProcessEuclidean:60 There are links with stored length smaller than their Euclidean distance in this network. Thus, A* cannot guarantee to calculate the least-cost paths between two nodes.
2023-04-06T12:22:35,628  INFO PreProcessLandmarks:113 Putting landmarks on network...
2023-04-06T12:22:35,628  INFO LandmarkerPieSlices:97 Filling sectors...
2023-04-06T12:22:35,629  INFO LandmarkerPieSlices:108 Refining landmarks...
2023-04-06T12:22:35,629  WARN CoordUtils$EucledianDistanceCalculator:405 Mixed use of elevation in coordinates: [x=475561.4425 | y=4202730.352]; [x=474683.953 | y=4203036.963 | z=0.0]
2023-04-06T12:22:35,629  WARN CoordUtils$EucledianDistanceCalculator:407 Returning projected coordinate distance (using x and y components only)
2023-04-06T12:22:35,629  WARN CoordUtils$EucledianDistanceCalculator:405 Mixed use of elevation in coordinates: [x=475561.4425 | y=4202730.352]; [x=474160.918 | y=4202630.638 | z=0.0]
2023-04-06T12:22:35,629  WARN CoordUtils$EucledianDistanceCalculator:407 Returning projected coordinate distance (using x and y components only)
2023-04-06T12:22:35,629  WARN CoordUtils$EucledianDistanceCalculator:405 Mixed use of elevation in coordinates: [x=475561.4425 | y=4202730.352]; [x=476630.164 | y=4203038.708 | z=0.0]
2023-04-06T12:22:35,629  WARN CoordUtils$EucledianDistanceCalculator:407 Returning projected coordinate distance (using x and y components only)
2023-04-06T12:22:35,629  WARN CoordUtils$EucledianDistanceCalculator:405 Mixed use of elevation in coordinates: [x=475561.4425 | y=4202730.352]; [x=476566.406 | y=4203130.564 | z=0.0]
2023-04-06T12:22:35,630  WARN CoordUtils$EucledianDistanceCalculator:407 Returning projected coordinate distance (using x and y components only)
2023-04-06T12:22:35,630  INFO LandmarkerPieSlices:110 done
2023-04-06T12:22:35,630  INFO PreProcessLandmarks:116 done in 2 ms
2023-04-06T12:22:35,630  INFO PreProcessLandmarks:118 Initializing landmarks data
2023-04-06T12:22:35,630  INFO PreProcessLandmarks:130 Calculating distance from each node to each of the 16 landmarks using 2 threads...
2023-04-06T12:22:35,630  INFO PreProcessLandmarks:140 wait for landmarks Calculator to finish...
2023-04-06T12:22:35,640  INFO PreProcessLandmarks:164 done in 10 ms
2023-04-06T12:22:35,641  INFO NetworkImpl:165  node # 1
2023-04-06T12:22:35,641  INFO NetworkImpl:165  node # 4
2023-04-06T12:22:35,641  INFO NetworkImpl:165  node # 16
2023-04-06T12:22:35,642  INFO NetworkImpl:165  node # 64
2023-04-06T12:22:35,642  INFO NetworkImpl:165  node # 256
2023-04-06T12:22:35,642  INFO NetworkImpl:161  link # 1
2023-04-06T12:22:35,642  INFO NetworkImpl:161  link # 4
2023-04-06T12:22:35,642  INFO NetworkImpl:161  link # 16
2023-04-06T12:22:35,643  INFO NetworkImpl:161  link # 64
2023-04-06T12:22:35,644  INFO NetworkImpl:161  link # 256
2023-04-06T12:22:35,645  INFO RandomizingTimeDistanceTravelDisutilityFactory:86  sigma: 3.0; resulting normalization: 0.011108996538242306
2023-04-06T12:22:35,646  INFO PreProcessDijkstra:119 nodes in dead ends: 15 (total nodes: 252). Done in 0 ms
2023-04-06T12:22:35,647  WARN PreProcessEuclidean:60 There are links with stored length smaller than their Euclidean distance in this network. Thus, A* cannot guarantee to calculate the least-cost paths between two nodes.
2023-04-06T12:22:35,647  INFO PreProcessLandmarks:113 Putting landmarks on network...
2023-04-06T12:22:35,647  INFO LandmarkerPieSlices:97 Filling sectors...
2023-04-06T12:22:35,647  INFO LandmarkerPieSlices:108 Refining landmarks...
2023-04-06T12:22:35,647  WARN CoordUtils$EucledianDistanceCalculator:405 Mixed use of elevation in coordinates: [x=475561.4425 | y=4202730.352]; [x=474683.953 | y=4203036.963 | z=0.0]
2023-04-06T12:22:35,648  WARN CoordUtils$EucledianDistanceCalculator:407 Returning projected coordinate distance (using x and y components only)
2023-04-06T12:22:35,648  WARN CoordUtils$EucledianDistanceCalculator:405 Mixed use of elevation in coordinates: [x=475561.4425 | y=4202730.352]; [x=474160.918 | y=4202630.638 | z=0.0]
2023-04-06T12:22:35,648  WARN CoordUtils$EucledianDistanceCalculator:407 Returning projected coordinate distance (using x and y components only)
2023-04-06T12:22:35,648  WARN CoordUtils$EucledianDistanceCalculator:405 Mixed use of elevation in coordinates: [x=475561.4425 | y=4202730.352]; [x=475961.819 | y=4203758.518 | z=0.0]
2023-04-06T12:22:35,648  WARN CoordUtils$EucledianDistanceCalculator:407 Returning projected coordinate distance (using x and y components only)
2023-04-06T12:22:35,648  WARN CoordUtils$EucledianDistanceCalculator:405 Mixed use of elevation in coordinates: [x=475561.4425 | y=4202730.352]; [x=475912.071 | y=4203760.719 | z=0.0]
2023-04-06T12:22:35,648  WARN CoordUtils$EucledianDistanceCalculator:407 Returning projected coordinate distance (using x and y components only)
2023-04-06T12:22:35,648  WARN CoordUtils$EucledianDistanceCalculator:410 Future occurences of this logging statement are suppressed.
2023-04-06T12:22:35,648  INFO LandmarkerPieSlices:110 done
2023-04-06T12:22:35,648  INFO PreProcessLandmarks:116 done in 1 ms
2023-04-06T12:22:35,648  INFO PreProcessLandmarks:118 Initializing landmarks data
2023-04-06T12:22:35,648  INFO PreProcessLandmarks:130 Calculating distance from each node to each of the 16 landmarks using 2 threads...
2023-04-06T12:22:35,649  INFO PreProcessLandmarks:140 wait for landmarks Calculator to finish...
2023-04-06T12:22:35,658  INFO PreProcessLandmarks:164 done in 9 ms
2023-04-06T12:22:35,658  INFO NetworkImpl:165  node # 1
2023-04-06T12:22:35,658  INFO NetworkImpl:165  node # 4
2023-04-06T12:22:35,658  INFO NetworkImpl:165  node # 16
2023-04-06T12:22:35,658  INFO NetworkImpl:165  node # 64
2023-04-06T12:22:35,658  INFO NetworkImpl:165  node # 256
2023-04-06T12:22:35,658  INFO NetworkImpl:161  link # 1
2023-04-06T12:22:35,659  INFO NetworkImpl:161  link # 4
2023-04-06T12:22:35,659  INFO NetworkImpl:161  link # 16
2023-04-06T12:22:35,659  INFO NetworkImpl:161  link # 64
2023-04-06T12:22:35,660  INFO NetworkImpl:161  link # 256
2023-04-06T12:22:35,662  INFO RandomizingTimeDistanceTravelDisutilityFactory:86  sigma: 3.0; resulting normalization: 0.011108996538242306
2023-04-06T12:22:35,663  INFO PreProcessDijkstra:119 nodes in dead ends: 29 (total nodes: 253). Done in 1 ms
2023-04-06T12:22:35,663  WARN PreProcessEuclidean:60 There are links with stored length smaller than their Euclidean distance in this network. Thus, A* cannot guarantee to calculate the least-cost paths between two nodes.
2023-04-06T12:22:35,663  INFO PreProcessLandmarks:113 Putting landmarks on network...
2023-04-06T12:22:35,664  INFO LandmarkerPieSlices:97 Filling sectors...
2023-04-06T12:22:35,664  INFO LandmarkerPieSlices:108 Refining landmarks...
2023-04-06T12:22:35,664  INFO LandmarkerPieSlices:110 done
2023-04-06T12:22:35,664  INFO PreProcessLandmarks:116 done in 1 ms
2023-04-06T12:22:35,664  INFO PreProcessLandmarks:118 Initializing landmarks data
2023-04-06T12:22:35,664  INFO PreProcessLandmarks:130 Calculating distance from each node to each of the 16 landmarks using 2 threads...
2023-04-06T12:22:35,665  INFO PreProcessLandmarks:140 wait for landmarks Calculator to finish...
2023-04-06T12:22:35,672  INFO PreProcessLandmarks:164 done in 7 ms
2023-04-06T12:22:35,677  INFO NetworkImpl:419 building QuadTree for nodes: xrange(473178.687,477944.198); yrange(4201015.733,4204444.971)
2023-04-06T12:22:35,682  INFO NetworkImpl:428 Building QuadTree took 0.005 seconds.
2023-04-06T12:22:35,697  INFO Counter:70 [PersonPrepareForSim] handled person # 1
2023-04-06T12:22:35,699  INFO Counter:70 [PersonPrepareForSim] handled person # 2
2023-04-06T12:22:35,702  INFO Counter:70 [PersonPrepareForSim] handled person # 4
2023-04-06T12:22:35,706  INFO Counter:70 [PersonPrepareForSim] handled person # 8
2023-04-06T12:22:35,711  INFO Counter:70 [PersonPrepareForSim] handled person # 16
2023-04-06T12:22:35,719  INFO Counter:70 [PersonPrepareForSim] handled person # 32
2023-04-06T12:22:35,733  INFO Counter:70 [PersonPrepareForSim] handled person # 64
2023-04-06T12:22:35,751  INFO Counter:70 [PersonPrepareForSim] handled person # 128
2023-04-06T12:22:35,786  INFO Counter:70 [PersonPrepareForSim] handled person # 256
2023-04-06T12:22:35,834  INFO Counter:70 [PersonPrepareForSim] handled person # 512
2023-04-06T12:22:35,908  INFO Counter:70 [PersonPrepareForSim] handled person # 1024
2023-04-06T12:22:35,934  INFO Counter:75 [PersonPrepareForSim] handled person # 1200
2023-04-06T12:22:35,935  INFO AbstractController:134 ###################################################
2023-04-06T12:22:35,935  INFO AbstractController:135 ### ITERATION 0 BEGINS
2023-04-06T12:22:35,936  INFO ControlerListenerManagerImpl:146 calling notifyIterationStarts on org.matsim.analysis.LegHistogramListener
2023-04-06T12:22:35,936  INFO ControlerListenerManagerImpl:146 calling notifyIterationStarts on org.matsim.analysis.LinkStatsControlerListener
2023-04-06T12:22:35,936  INFO ControlerListenerManagerImpl:146 calling notifyIterationStarts on org.matsim.core.replanning.ReplanningContextImpl
2023-04-06T12:22:35,936  INFO ControlerListenerManagerImpl:146 calling notifyIterationStarts on org.matsim.core.scoring.ScoringFunctionsForPopulation$$Lambda$224/0x0000000800f2fbf0
2023-04-06T12:22:35,952  INFO ControlerListenerManagerImpl:146 calling notifyIterationStarts on org.matsim.core.scoring.ExperiencedPlansServiceImpl$1
2023-04-06T12:22:35,952  INFO ControlerListenerManagerImpl:149 [it.0] all ControlerIterationStartsListeners called.
2023-04-06T12:22:35,953  INFO ControlerListenerManagerImpl:225 calling notifyBeforeMobsim on org.matsim.core.controler.corelisteners.EventsHandlingImpl
2023-04-06T12:22:35,953  INFO EventsManagerImpl:168 resetting Event-Handlers
2023-04-06T12:22:35,953  INFO EventsManagerImpl:175   org.matsim.core.trafficmonitoring.TravelTimeCalculator
2023-04-06T12:22:35,953  INFO EventsManagerImpl:175   org.matsim.core.trafficmonitoring.TravelTimeCalculator
2023-04-06T12:22:35,953  INFO EventsManagerImpl:175   org.matsim.core.trafficmonitoring.TravelTimeCalculator
2023-04-06T12:22:35,953  INFO EventsManagerImpl:175   org.matsim.analysis.VolumesAnalyzer
2023-04-06T12:22:35,953  INFO EventsManagerImpl:175   org.matsim.core.scoring.ScoringFunctionsForPopulation
2023-04-06T12:22:35,953  INFO EventsManagerImpl:175   org.matsim.analysis.LegHistogram
2023-04-06T12:22:35,954  INFO EventsManagerImpl:175   org.matsim.analysis.CalcLegTimes
2023-04-06T12:22:35,956  INFO EventsManagerImpl:138 adding Event-Handler: org.matsim.core.events.algorithms.EventWriterXML
2023-04-06T12:22:35,956  INFO EventsManagerImpl:144   org.matsim.core.events.algorithms.EventWriter
2023-04-06T12:22:35,956  INFO EventsManagerImpl:144   org.matsim.core.events.handler.BasicEventHandler
2023-04-06T12:22:35,956  INFO EventsManagerImpl:205     > org.matsim.api.core.v01.events.Event
2023-04-06T12:22:35,956  INFO EventsManagerImpl:154 
2023-04-06T12:22:35,956  INFO EventsManagerImpl:138 adding Event-Handler: org.matsim.core.events.algorithms.EventWriterXML
2023-04-06T12:22:35,956  INFO EventsManagerImpl:144   org.matsim.core.events.algorithms.EventWriter
2023-04-06T12:22:35,956  INFO EventsManagerImpl:144   org.matsim.core.events.handler.BasicEventHandler
2023-04-06T12:22:35,956  INFO EventsManagerImpl:205     > org.matsim.api.core.v01.events.Event
2023-04-06T12:22:35,956  INFO EventsManagerImpl:154 
2023-04-06T12:22:35,956  INFO ControlerListenerManagerImpl:225 calling notifyBeforeMobsim on org.matsim.core.controler.corelisteners.PlansDumpingImpl
2023-04-06T12:22:35,956  INFO PlansDumpingImpl:77 dumping plans...
2023-04-06T12:22:35,976  INFO Counter:70 [PopulationWriter] dumped person # 1
2023-04-06T12:22:35,977  INFO Counter:70 [PopulationWriter] dumped person # 2
2023-04-06T12:22:35,978  INFO Counter:70 [PopulationWriter] dumped person # 4
2023-04-06T12:22:35,979  INFO Counter:70 [PopulationWriter] dumped person # 8
2023-04-06T12:22:35,980  INFO Counter:70 [PopulationWriter] dumped person # 16
2023-04-06T12:22:35,983  INFO Counter:70 [PopulationWriter] dumped person # 32
2023-04-06T12:22:35,987  INFO Counter:70 [PopulationWriter] dumped person # 64
2023-04-06T12:22:35,994  INFO Counter:70 [PopulationWriter] dumped person # 128
2023-04-06T12:22:36,006  INFO Counter:70 [PopulationWriter] dumped person # 256
2023-04-06T12:22:36,028  INFO Counter:70 [PopulationWriter] dumped person # 512
2023-04-06T12:22:36,060  INFO Counter:70 [PopulationWriter] dumped person # 1024
2023-04-06T12:22:36,071  INFO PopulationWriter:145 Population written to: ./output/ITERS/it.0/0.plans.xml.gz
2023-04-06T12:22:36,072  INFO Counter:75 [PopulationWriter] dumped person # 1200
2023-04-06T12:22:36,072  INFO PlansDumpingImpl:94 finished plans dump.
2023-04-06T12:22:36,072  INFO ControlerListenerManagerImpl:230 calling notifyBeforeMobsim on org.matsim.core.population.VspPlansCleaner
2023-04-06T12:22:36,074  INFO ControlerListenerManagerImpl:233 [it.0] all ControlerBeforeMobsimListeners called.
2023-04-06T12:22:36,075  INFO PrepareForMobsimImpl:87 Network seems to be multimodal. Create car-only network which is handed over to PersonPrepareForSim.
2023-04-06T12:22:36,075  INFO NetworkImpl:165  node # 1
2023-04-06T12:22:36,075  INFO NetworkImpl:165  node # 4
2023-04-06T12:22:36,075  INFO NetworkImpl:165  node # 16
2023-04-06T12:22:36,075  INFO NetworkImpl:165  node # 64
2023-04-06T12:22:36,075  INFO NetworkImpl:165  node # 256
2023-04-06T12:22:36,075  INFO NetworkImpl:161  link # 1
2023-04-06T12:22:36,075  INFO NetworkImpl:161  link # 4
2023-04-06T12:22:36,076  INFO NetworkImpl:161  link # 16
2023-04-06T12:22:36,076  INFO NetworkImpl:161  link # 64
2023-04-06T12:22:36,077  INFO NetworkImpl:161  link # 256
2023-04-06T12:22:36,079  INFO RandomizingTimeDistanceTravelDisutilityFactory:86  sigma: 3.0; resulting normalization: 0.011108996538242306
2023-04-06T12:22:36,080  INFO RandomizingTimeDistanceTravelDisutilityFactory:86  sigma: 3.0; resulting normalization: 0.011108996538242306
2023-04-06T12:22:36,080  INFO RandomizingTimeDistanceTravelDisutilityFactory:86  sigma: 3.0; resulting normalization: 0.011108996538242306
2023-04-06T12:22:36,081  INFO Counter:70 [PersonPrepareForSim] handled person # 1
2023-04-06T12:22:36,081  INFO Counter:70 [PersonPrepareForSim] handled person # 2
2023-04-06T12:22:36,081  INFO Counter:70 [PersonPrepareForSim] handled person # 4
2023-04-06T12:22:36,081  INFO Counter:70 [PersonPrepareForSim] handled person # 8
2023-04-06T12:22:36,081  INFO Counter:70 [PersonPrepareForSim] handled person # 16
2023-04-06T12:22:36,081  INFO Counter:70 [PersonPrepareForSim] handled person # 32
2023-04-06T12:22:36,081  INFO Counter:70 [PersonPrepareForSim] handled person # 64
2023-04-06T12:22:36,082  INFO Counter:70 [PersonPrepareForSim] handled person # 128
2023-04-06T12:22:36,082  INFO Counter:70 [PersonPrepareForSim] handled person # 256
2023-04-06T12:22:36,083  INFO Counter:70 [PersonPrepareForSim] handled person # 512
2023-04-06T12:22:36,085  INFO Counter:70 [PersonPrepareForSim] handled person # 1024
2023-04-06T12:22:36,085  INFO Counter:75 [PersonPrepareForSim] handled person # 1200
2023-04-06T12:22:36,139  INFO MobsimListenerManager:50 calling addQueueSimulationListener
2023-04-06T12:22:36,140  INFO MobsimListenerManager:54   assigned class org.matsim.core.mobsim.framework.listeners.MobsimListener to interface org.matsim.core.mobsim.framework.listeners.MobsimBeforeCleanupListener
2023-04-06T12:22:36,140  INFO MobsimListenerManager:54   assigned class org.matsim.core.mobsim.framework.listeners.MobsimListener to interface org.matsim.core.mobsim.framework.listeners.MobsimAfterSimStepListener
2023-04-06T12:22:36,140  INFO MobsimListenerManager:54   assigned class org.matsim.core.mobsim.framework.listeners.MobsimListener to interface org.matsim.core.mobsim.framework.listeners.MobsimListener
2023-04-06T12:22:36,140  INFO MobsimListenerManager:54   assigned class org.matsim.core.mobsim.framework.listeners.MobsimListener to interface org.matsim.core.mobsim.framework.listeners.MobsimInitializedListener
2023-04-06T12:22:36,140  INFO MobsimListenerManager:54   assigned class org.matsim.core.mobsim.framework.listeners.MobsimListener to interface org.matsim.vis.snapshotwriters.SnapshotWriterManager
2023-04-06T12:22:36,162  INFO QSimProvider:131 Added MobsimEngine class org.matsim.core.mobsim.qsim.ActivityEngineDefaultImpl
2023-04-06T12:22:36,162  INFO QSimProvider:137 Added Activityhandler class org.matsim.core.mobsim.qsim.ActivityEngineDefaultImpl
2023-04-06T12:22:36,162  INFO QSimProvider:143 Added DepartureHandler class org.matsim.core.mobsim.qsim.qnetsimengine.VehicularDepartureHandler
2023-04-06T12:22:36,162  INFO QSimProvider:131 Added MobsimEngine class org.matsim.core.mobsim.qsim.qnetsimengine.QNetsimEngineWithThreadpool
2023-04-06T12:22:36,162  INFO QSimProvider:131 Added MobsimEngine class org.matsim.core.mobsim.qsim.DefaultTeleportationEngine
2023-04-06T12:22:36,162  INFO QSimProvider:143 Added DepartureHandler class org.matsim.core.mobsim.qsim.DefaultTeleportationEngine
2023-04-06T12:22:36,162  INFO QSimProvider:149 Added AgentSource class org.matsim.core.mobsim.qsim.agents.PopulationAgentSource
2023-04-06T12:22:36,162  INFO MobsimListenerManager:50 calling addQueueSimulationListener
2023-04-06T12:22:36,162  INFO MobsimListenerManager:54   assigned class org.matsim.core.mobsim.framework.listeners.MobsimListener to interface org.matsim.core.mobsim.qsim.messagequeueengine.MessageQueueEngine
2023-04-06T12:22:36,162  INFO MobsimListenerManager:54   assigned class org.matsim.core.mobsim.framework.listeners.MobsimListener to interface org.matsim.core.mobsim.framework.listeners.MobsimBeforeSimStepListener
2023-04-06T12:22:36,162  INFO MobsimListenerManager:54   assigned class org.matsim.core.mobsim.framework.listeners.MobsimListener to interface org.matsim.core.mobsim.framework.listeners.MobsimListener
2023-04-06T12:22:36,162  INFO QSimProvider:155 Added MobsimListener class org.matsim.core.mobsim.qsim.messagequeueengine.MessageQueueEngine
2023-04-06T12:22:36,168  INFO PopulationUtils:1202 adding scenario element for allpersons container
2023-04-06T12:22:36,168  INFO PopulationImpl:107  person # 1
2023-04-06T12:22:36,168  INFO PopulationImpl:107  person # 4
2023-04-06T12:22:36,168  INFO PopulationImpl:107  person # 16
2023-04-06T12:22:36,169  INFO PopulationImpl:107  person # 64
2023-04-06T12:22:36,170  INFO PopulationImpl:107  person # 256
2023-04-06T12:22:36,174  INFO PopulationImpl:107  person # 1024
2023-04-06T12:22:36,175  INFO VehicleUtils:328 adding scenario element for allvehicles container
2023-04-06T12:22:36,175  INFO Counter:70 [VehiclesImpl] added vehicle # 1
2023-04-06T12:22:36,175  INFO Counter:70 [VehiclesImpl] added vehicle # 2
2023-04-06T12:22:36,175  INFO Counter:70 [VehiclesImpl] added vehicle # 4
2023-04-06T12:22:36,176  INFO Counter:70 [VehiclesImpl] added vehicle # 8
2023-04-06T12:22:36,176  INFO Counter:70 [VehiclesImpl] added vehicle # 16
2023-04-06T12:22:36,176  INFO Counter:70 [VehiclesImpl] added vehicle # 32
2023-04-06T12:22:36,176  INFO Counter:70 [VehiclesImpl] added vehicle # 64
2023-04-06T12:22:36,176  INFO Counter:70 [VehiclesImpl] added vehicle # 128
2023-04-06T12:22:36,177  INFO Counter:70 [VehiclesImpl] added vehicle # 256
2023-04-06T12:22:36,179  INFO Counter:70 [VehiclesImpl] added vehicle # 512
2023-04-06T12:22:36,182  INFO Counter:70 [VehiclesImpl] added vehicle # 1024
2023-04-06T12:22:36,187  INFO AbstractQNetsimEngine:428 Assigned 257 nodes and 493 links to QSimEngineRunner #0
2023-04-06T12:22:36,192  INFO EventsManagerImpl:115  event # 1
2023-04-06T12:22:36,195  INFO EventsManagerImpl:115  event # 4
2023-04-06T12:22:36,197  INFO AbstractQNetsimEngine:366 SIMULATION (QNetsimEngine) AT 09:00:03 : #links=0 #nodes=1
2023-04-06T12:22:36,202  INFO QSim:566 SIMULATION (NEW QSim) AT 09:00:03 : #Veh=1200 lost=0 simT=0.0s realT=0s; (s/r): 0.0
2023-04-06T12:22:36,205  INFO EventsManagerImpl:115  event # 16
2023-04-06T12:22:36,208  INFO EventsManagerImpl:115  event # 64
2023-04-06T12:22:36,220  INFO EventsManagerImpl:115  event # 256
2023-04-06T12:22:36,243  INFO EventsManagerImpl:115  event # 1024
2023-04-06T12:22:36,291  INFO EventsManagerImpl:115  event # 4096
2023-04-06T12:22:36,414  INFO EventsManagerImpl:115  event # 16384
2023-04-06T12:22:36,737  INFO AbstractQNetsimEngine:366 SIMULATION (QNetsimEngine) AT 10:00:00 : #links=20 #nodes=14
2023-04-06T12:22:36,737  INFO QSim:566 SIMULATION (NEW QSim) AT 10:00:00 : #Veh=1200 lost=0 simT=3597.0s realT=0s; (s/r): Infinity
2023-04-06T12:22:36,847  INFO AbstractQNetsimEngine:366 SIMULATION (QNetsimEngine) AT 11:00:00 : #links=0 #nodes=0
2023-04-06T12:22:36,847  INFO QSim:566 SIMULATION (NEW QSim) AT 11:00:00 : #Veh=1200 lost=0 simT=7197.0s realT=0s; (s/r): Infinity
2023-04-06T12:22:36,942  INFO AbstractQNetsimEngine:366 SIMULATION (QNetsimEngine) AT 12:00:00 : #links=0 #nodes=0
2023-04-06T12:22:36,942  INFO QSim:566 SIMULATION (NEW QSim) AT 12:00:00 : #Veh=1200 lost=0 simT=10797.0s realT=0s; (s/r): Infinity
2023-04-06T12:22:37,027  INFO AbstractQNetsimEngine:366 SIMULATION (QNetsimEngine) AT 13:00:00 : #links=0 #nodes=0
2023-04-06T12:22:37,027  INFO QSim:566 SIMULATION (NEW QSim) AT 13:00:00 : #Veh=1200 lost=0 simT=14397.0s realT=0s; (s/r): Infinity
2023-04-06T12:22:37,103  INFO AbstractQNetsimEngine:366 SIMULATION (QNetsimEngine) AT 14:00:00 : #links=0 #nodes=0
2023-04-06T12:22:37,103  INFO QSim:566 SIMULATION (NEW QSim) AT 14:00:00 : #Veh=1200 lost=0 simT=17997.0s realT=0s; (s/r): Infinity
2023-04-06T12:22:37,178  INFO AbstractQNetsimEngine:366 SIMULATION (QNetsimEngine) AT 15:00:00 : #links=0 #nodes=0
2023-04-06T12:22:37,178  INFO QSim:566 SIMULATION (NEW QSim) AT 15:00:00 : #Veh=1200 lost=0 simT=21597.0s realT=1s; (s/r): 21597.0
2023-04-06T12:22:37,254  INFO AbstractQNetsimEngine:366 SIMULATION (QNetsimEngine) AT 16:00:00 : #links=0 #nodes=0
2023-04-06T12:22:37,254  INFO QSim:566 SIMULATION (NEW QSim) AT 16:00:00 : #Veh=1200 lost=0 simT=25197.0s realT=1s; (s/r): 25197.0
2023-04-06T12:22:37,328  INFO AbstractQNetsimEngine:366 SIMULATION (QNetsimEngine) AT 17:00:00 : #links=0 #nodes=0
2023-04-06T12:22:37,328  INFO QSim:566 SIMULATION (NEW QSim) AT 17:00:00 : #Veh=1200 lost=0 simT=28797.0s realT=1s; (s/r): 28797.0
2023-04-06T12:22:37,382  INFO EventsManagerImpl:115  event # 65536
2023-04-06T12:22:37,701  INFO AbstractQNetsimEngine:366 SIMULATION (QNetsimEngine) AT 18:00:00 : #links=22 #nodes=14
2023-04-06T12:22:37,701  INFO QSim:566 SIMULATION (NEW QSim) AT 18:00:00 : #Veh=180 lost=0 simT=32397.0s realT=1s; (s/r): 32397.0
2023-04-06T12:22:37,727  INFO AbstractController$9:235 ### ITERATION 0 fires after mobsim event
2023-04-06T12:22:37,727  INFO ControlerListenerManagerImpl:249 calling notifyAfterMobsim on org.matsim.analysis.LegTimesControlerListener
2023-04-06T12:22:37,728  INFO Gbl:192 Thread performance: Thread=class org.matsim.core.events.SimStepParallelEventsManagerImpl$ProcessEventsRunnable0  cpu-time=0.75sec
2023-04-06T12:22:37,732  INFO LegTimesControlerListener:51 [0] average trip (probably: leg) duration is: 457 seconds = 00:07:37
2023-04-06T12:22:37,732  INFO ControlerListenerManagerImpl:249 calling notifyAfterMobsim on org.matsim.core.events.MobsimScopeEventHandling
2023-04-06T12:22:37,734  INFO ControlerListenerManagerImpl:249 calling notifyAfterMobsim on org.matsim.core.scoring.EventsToActivities$1
2023-04-06T12:22:37,738  INFO ControlerListenerManagerImpl:252 [it.0] all ControlerAfterMobsimListeners called.
2023-04-06T12:22:37,739  INFO AbstractController$4:160 ### ITERATION 0 fires scoring event
2023-04-06T12:22:37,739  INFO ControlerListenerManagerImpl:184 calling notifyScoring on org.matsim.core.scoring.PlansScoringImpl
2023-04-06T12:22:37,745  INFO NewScoreAssignerImpl:58 it: 0 msaStart: null
2023-04-06T12:22:37,746  INFO ControlerListenerManagerImpl:195 [it.0] all ControlerScoringListeners called.
2023-04-06T12:22:37,747  INFO AbstractController$5:168 ### ITERATION 0 fires iteration end event
2023-04-06T12:22:37,747  INFO ControlerListenerManagerImpl:161 calling notifyIterationEnds on org.matsim.core.controler.corelisteners.EventsHandlingImpl
2023-04-06T12:22:37,748  INFO EventsManagerImpl:159 removing Event-Handler: org.matsim.core.events.algorithms.EventWriterXML
2023-04-06T12:22:37,748  INFO EventsManagerImpl:159 removing Event-Handler: org.matsim.core.events.algorithms.EventWriterXML
[...]
2023-04-06T12:25:19,982  INFO Counter:70 [PopulationWriter] dumped person # 32
2023-04-06T12:25:19,986  INFO Counter:70 [PopulationWriter] dumped person # 64
2023-04-06T12:25:19,993  INFO Counter:70 [PopulationWriter] dumped person # 128
2023-04-06T12:25:20,006  INFO Counter:70 [PopulationWriter] dumped person # 256
2023-04-06T12:25:20,032  INFO Counter:70 [PopulationWriter] dumped person # 512
2023-04-06T12:25:20,086  INFO Counter:70 [PopulationWriter] dumped person # 1024
2023-04-06T12:25:20,104  INFO PopulationWriter:145 Population written to: ./output/ITERS/it.100/100.plans.xml.gz
2023-04-06T12:25:20,105  INFO Counter:75 [PopulationWriter] dumped person # 1200
2023-04-06T12:25:20,105  INFO PlansDumpingImpl:94 finished plans dump.
2023-04-06T12:25:20,105  INFO ControlerListenerManagerImpl:230 calling notifyBeforeMobsim on org.matsim.core.population.VspPlansCleaner
2023-04-06T12:25:20,106  INFO ControlerListenerManagerImpl:233 [it.100] all ControlerBeforeMobsimListeners called.
2023-04-06T12:25:20,106  INFO PrepareForMobsimImpl:87 Network seems to be multimodal. Create car-only network which is handed over to PersonPrepareForSim.
2023-04-06T12:25:20,106  INFO NetworkImpl:165  node # 1
2023-04-06T12:25:20,106  INFO NetworkImpl:165  node # 4
2023-04-06T12:25:20,106  INFO NetworkImpl:165  node # 16
2023-04-06T12:25:20,106  INFO NetworkImpl:165  node # 64
2023-04-06T12:25:20,106  INFO NetworkImpl:165  node # 256
2023-04-06T12:25:20,106  INFO NetworkImpl:161  link # 1
2023-04-06T12:25:20,106  INFO NetworkImpl:161  link # 4
2023-04-06T12:25:20,106  INFO NetworkImpl:161  link # 16
2023-04-06T12:25:20,106  INFO NetworkImpl:161  link # 64
2023-04-06T12:25:20,107  INFO NetworkImpl:161  link # 256
2023-04-06T12:25:20,107  INFO Counter:70 [PersonPrepareForSim] handled person # 1
2023-04-06T12:25:20,108  INFO Counter:70 [PersonPrepareForSim] handled person # 2
2023-04-06T12:25:20,108  INFO Counter:70 [PersonPrepareForSim] handled person # 4
2023-04-06T12:25:20,108  INFO Counter:70 [PersonPrepareForSim] handled person # 8
2023-04-06T12:25:20,108  INFO Counter:70 [PersonPrepareForSim] handled person # 16
2023-04-06T12:25:20,108  INFO Counter:70 [PersonPrepareForSim] handled person # 32
2023-04-06T12:25:20,108  INFO Counter:70 [PersonPrepareForSim] handled person # 64
2023-04-06T12:25:20,108  INFO Counter:70 [PersonPrepareForSim] handled person # 128
2023-04-06T12:25:20,109  INFO Counter:70 [PersonPrepareForSim] handled person # 256
2023-04-06T12:25:20,110  INFO Counter:70 [PersonPrepareForSim] handled person # 512
2023-04-06T12:25:20,113  INFO Counter:70 [PersonPrepareForSim] handled person # 1024
2023-04-06T12:25:20,114  INFO Counter:75 [PersonPrepareForSim] handled person # 1200
2023-04-06T12:25:20,119  INFO MobsimListenerManager:50 calling addQueueSimulationListener
2023-04-06T12:25:20,119  INFO MobsimListenerManager:54   assigned class org.matsim.core.mobsim.framework.listeners.MobsimListener to interface org.matsim.core.mobsim.framework.listeners.MobsimBeforeCleanupListener
2023-04-06T12:25:20,119  INFO MobsimListenerManager:54   assigned class org.matsim.core.mobsim.framework.listeners.MobsimListener to interface org.matsim.core.mobsim.framework.listeners.MobsimAfterSimStepListener
2023-04-06T12:25:20,119  INFO MobsimListenerManager:54   assigned class org.matsim.core.mobsim.framework.listeners.MobsimListener to interface org.matsim.core.mobsim.framework.listeners.MobsimListener
2023-04-06T12:25:20,119  INFO MobsimListenerManager:54   assigned class org.matsim.core.mobsim.framework.listeners.MobsimListener to interface org.matsim.core.mobsim.framework.listeners.MobsimInitializedListener
2023-04-06T12:25:20,119  INFO MobsimListenerManager:54   assigned class org.matsim.core.mobsim.framework.listeners.MobsimListener to interface org.matsim.vis.snapshotwriters.SnapshotWriterManager
2023-04-06T12:25:20,120  INFO QSimProvider:131 Added MobsimEngine class org.matsim.core.mobsim.qsim.ActivityEngineDefaultImpl
2023-04-06T12:25:20,120  INFO QSimProvider:137 Added Activityhandler class org.matsim.core.mobsim.qsim.ActivityEngineDefaultImpl
2023-04-06T12:25:20,120  INFO QSimProvider:143 Added DepartureHandler class org.matsim.core.mobsim.qsim.qnetsimengine.VehicularDepartureHandler
2023-04-06T12:25:20,120  INFO QSimProvider:131 Added MobsimEngine class org.matsim.core.mobsim.qsim.qnetsimengine.QNetsimEngineWithThreadpool
2023-04-06T12:25:20,120  INFO QSimProvider:131 Added MobsimEngine class org.matsim.core.mobsim.qsim.DefaultTeleportationEngine
2023-04-06T12:25:20,120  INFO QSimProvider:143 Added DepartureHandler class org.matsim.core.mobsim.qsim.DefaultTeleportationEngine
2023-04-06T12:25:20,120  INFO QSimProvider:149 Added AgentSource class org.matsim.core.mobsim.qsim.agents.PopulationAgentSource
2023-04-06T12:25:20,120  INFO MobsimListenerManager:50 calling addQueueSimulationListener
2023-04-06T12:25:20,120  INFO MobsimListenerManager:54   assigned class org.matsim.core.mobsim.framework.listeners.MobsimListener to interface org.matsim.core.mobsim.qsim.messagequeueengine.MessageQueueEngine
2023-04-06T12:25:20,120  INFO MobsimListenerManager:54   assigned class org.matsim.core.mobsim.framework.listeners.MobsimListener to interface org.matsim.core.mobsim.framework.listeners.MobsimBeforeSimStepListener
2023-04-06T12:25:20,120  INFO MobsimListenerManager:54   assigned class org.matsim.core.mobsim.framework.listeners.MobsimListener to interface org.matsim.core.mobsim.framework.listeners.MobsimListener
2023-04-06T12:25:20,120  INFO QSimProvider:155 Added MobsimListener class org.matsim.core.mobsim.qsim.messagequeueengine.MessageQueueEngine
2023-04-06T12:25:20,123  INFO AbstractQNetsimEngine:428 Assigned 257 nodes and 493 links to QSimEngineRunner #0
2023-04-06T12:25:20,124  INFO AbstractQNetsimEngine:366 SIMULATION (QNetsimEngine) AT 09:00:03 : #links=0 #nodes=1
2023-04-06T12:25:20,124  INFO QSim:566 SIMULATION (NEW QSim) AT 09:00:03 : #Veh=1200 lost=0 simT=0.0s realT=0s; (s/r): 0.0
2023-04-06T12:25:20,327  INFO AbstractQNetsimEngine:366 SIMULATION (QNetsimEngine) AT 10:00:00 : #links=22 #nodes=10
2023-04-06T12:25:20,327  INFO QSim:566 SIMULATION (NEW QSim) AT 10:00:00 : #Veh=1200 lost=0 simT=3597.0s realT=0s; (s/r): Infinity
2023-04-06T12:25:20,410  INFO AbstractQNetsimEngine:366 SIMULATION (QNetsimEngine) AT 11:00:00 : #links=0 #nodes=0
2023-04-06T12:25:20,410  INFO QSim:566 SIMULATION (NEW QSim) AT 11:00:00 : #Veh=1200 lost=0 simT=7197.0s realT=0s; (s/r): Infinity
2023-04-06T12:25:20,483  INFO AbstractQNetsimEngine:366 SIMULATION (QNetsimEngine) AT 12:00:00 : #links=0 #nodes=0
2023-04-06T12:25:20,483  INFO QSim:566 SIMULATION (NEW QSim) AT 12:00:00 : #Veh=1200 lost=0 simT=10797.0s realT=0s; (s/r): Infinity
2023-04-06T12:25:20,586  INFO AbstractQNetsimEngine:366 SIMULATION (QNetsimEngine) AT 13:00:00 : #links=0 #nodes=0
2023-04-06T12:25:20,586  INFO QSim:566 SIMULATION (NEW QSim) AT 13:00:00 : #Veh=1200 lost=0 simT=14397.0s realT=0s; (s/r): Infinity
2023-04-06T12:25:20,667  INFO AbstractQNetsimEngine:366 SIMULATION (QNetsimEngine) AT 14:00:00 : #links=0 #nodes=0
2023-04-06T12:25:20,667  INFO QSim:566 SIMULATION (NEW QSim) AT 14:00:00 : #Veh=1200 lost=0 simT=17997.0s realT=0s; (s/r): Infinity
2023-04-06T12:25:20,740  INFO AbstractQNetsimEngine:366 SIMULATION (QNetsimEngine) AT 15:00:00 : #links=0 #nodes=0
2023-04-06T12:25:20,740  INFO QSim:566 SIMULATION (NEW QSim) AT 15:00:00 : #Veh=1200 lost=0 simT=21597.0s realT=0s; (s/r): Infinity
2023-04-06T12:25:20,811  INFO AbstractQNetsimEngine:366 SIMULATION (QNetsimEngine) AT 16:00:00 : #links=0 #nodes=0
2023-04-06T12:25:20,811  INFO QSim:566 SIMULATION (NEW QSim) AT 16:00:00 : #Veh=1200 lost=0 simT=25197.0s realT=0s; (s/r): Infinity
2023-04-06T12:25:20,884  INFO AbstractQNetsimEngine:366 SIMULATION (QNetsimEngine) AT 17:00:00 : #links=0 #nodes=0
2023-04-06T12:25:20,884  INFO QSim:566 SIMULATION (NEW QSim) AT 17:00:00 : #Veh=1200 lost=0 simT=28797.0s realT=0s; (s/r): Infinity
2023-04-06T12:25:21,102  INFO AbstractQNetsimEngine:366 SIMULATION (QNetsimEngine) AT 18:00:00 : #links=29 #nodes=13
2023-04-06T12:25:21,102  INFO QSim:566 SIMULATION (NEW QSim) AT 18:00:00 : #Veh=318 lost=0 simT=32397.0s realT=0s; (s/r): Infinity
2023-04-06T12:25:21,138  INFO AbstractController$9:235 ### ITERATION 100 fires after mobsim event
2023-04-06T12:25:21,138  INFO Gbl:192 Thread performance: Thread=class org.matsim.core.events.SimStepParallelEventsManagerImpl$ProcessEventsRunnable0  cpu-time=0.515625sec
2023-04-06T12:25:21,139  INFO ControlerListenerManagerImpl:249 calling notifyAfterMobsim on org.matsim.analysis.LegTimesControlerListener
2023-04-06T12:25:21,139  INFO LegTimesControlerListener:51 [100] average trip (probably: leg) duration is: 805 seconds = 00:13:25
2023-04-06T12:25:21,139  INFO ControlerListenerManagerImpl:249 calling notifyAfterMobsim on org.matsim.core.events.MobsimScopeEventHandling
2023-04-06T12:25:21,140  INFO ControlerListenerManagerImpl:249 calling notifyAfterMobsim on org.matsim.core.scoring.EventsToActivities$1
2023-04-06T12:25:21,140  INFO ControlerListenerManagerImpl:252 [it.100] all ControlerAfterMobsimListeners called.
2023-04-06T12:25:21,140  INFO AbstractController$4:160 ### ITERATION 100 fires scoring event
2023-04-06T12:25:21,140  INFO ControlerListenerManagerImpl:184 calling notifyScoring on org.matsim.core.scoring.PlansScoringImpl
2023-04-06T12:25:21,141  INFO NewScoreAssignerImpl:58 it: 100 msaStart: null
2023-04-06T12:25:21,141  INFO ControlerListenerManagerImpl:195 [it.100] all ControlerScoringListeners called.
2023-04-06T12:25:21,141  INFO AbstractController$5:168 ### ITERATION 100 fires iteration end event
2023-04-06T12:25:21,141  INFO ControlerListenerManagerImpl:161 calling notifyIterationEnds on org.matsim.core.controler.corelisteners.EventsHandlingImpl
2023-04-06T12:25:21,141  INFO EventsManagerImpl:159 removing Event-Handler: org.matsim.core.events.algorithms.EventWriterXML
2023-04-06T12:25:21,141  INFO EventsManagerImpl:159 removing Event-Handler: org.matsim.core.events.algorithms.EventWriterXML
2023-04-06T12:25:21,141  INFO ControlerListenerManagerImpl:161 calling notifyIterationEnds on org.matsim.core.scoring.PlansScoringImpl
2023-04-06T12:25:21,142  INFO ControlerListenerManagerImpl:168 calling notifyIterationEnds on org.matsim.counts.CountsControlerListener
2023-04-06T12:25:21,142  INFO CountSimComparisonTableWriter:94 Writing CountsSimComparison to ./output/ITERS/it.100/100.countscompare.txt
2023-04-06T12:25:21,142  INFO CountSimComparisonTableWriter:135 Writing 'average weekday traffic volume' to ./output/ITERS/it.100/100.countscompareAWTV.txt
2023-04-06T12:25:21,142  INFO ControlerListenerManagerImpl:168 calling notifyIterationEnds on org.matsim.analysis.ModeStatsControlerListener
2023-04-06T12:25:21,144  INFO ModeStatsControlerListener:145 Mode shares over all 2400.0 trips found. MainModeIdentifier: class org.matsim.core.router.RoutingModeMainModeIdentifier
2023-04-06T12:25:21,144  INFO ModeStatsControlerListener:152 -- mode share of mode car = 0.8275
2023-04-06T12:25:21,144  INFO ModeStatsControlerListener:152 -- mode share of mode ebike = 0.0975
2023-04-06T12:25:21,144  INFO ModeStatsControlerListener:152 -- mode share of mode escoot = 0.075
2023-04-06T12:25:21,231  INFO ControlerListenerManagerImpl:168 calling notifyIterationEnds on org.matsim.analysis.ScoreStatsControlerListener
2023-04-06T12:25:21,232  INFO ScoreStatsControlerListener:182 -- avg. score of the executed plan of each agent: 137.61815691743948
2023-04-06T12:25:21,232  INFO ScoreStatsControlerListener:183 -- avg. score of the worst plan of each agent: 137.27099918201293
2023-04-06T12:25:21,232  INFO ScoreStatsControlerListener:184 -- avg. of the avg. plan score per agent: 138.22451679901448
2023-04-06T12:25:21,232  INFO ScoreStatsControlerListener:185 -- avg. score of the best plan of each agent: 138.8007261119625
2023-04-06T12:25:21,259  INFO ControlerListenerManagerImpl:168 calling notifyIterationEnds on org.matsim.analysis.IterationTravelStatsControlerListener
2023-04-06T12:25:21,260  INFO TravelDistanceStats:144 -- average leg distance per plan (executed plans only): 4476.030125416666 meters
2023-04-06T12:25:21,260  INFO TravelDistanceStats:145 average leg distance per Person (executed plans only): 8952.060250833332 meters (statistic on all 2400 legs which have a finite distance)
2023-04-06T12:25:21,260  INFO TravelDistanceStats:146 -- average trip distance per plan (executed plans only): 4476.030125416666 meters
2023-04-06T12:25:21,260  INFO TravelDistanceStats:147 average trip distance per Person (executed plans only): 8952.060250833332 meters (statistic on all 2400 trips which have a finite distance)
2023-04-06T12:25:21,260  INFO TravelDistanceStats:148 (TravelDistanceStats takes an average over all legs where the simulation reports travelled (network) distances
2023-04-06T12:25:21,260  INFO TravelDistanceStats:149 (and teleported legs whose route contains a distance.)
2023-04-06T12:25:21,523  INFO ControlerListenerManagerImpl:168 calling notifyIterationEnds on org.matsim.analysis.LegHistogramListener
2023-04-06T12:25:21,524  INFO LegHistogramListener:73 number of legs:	2400	100%
2023-04-06T12:25:21,524  INFO LegHistogramListener:80 number of car legs:	1986	82.75%
2023-04-06T12:25:21,524  INFO LegHistogramListener:80 number of ebike legs:	234	9.75%
2023-04-06T12:25:21,524  INFO LegHistogramListener:80 number of escoot legs:	180	7.5%
2023-04-06T12:25:21,759  INFO ControlerListenerManagerImpl:168 calling notifyIterationEnds on org.matsim.analysis.LinkStatsControlerListener
2023-04-06T12:25:21,786  INFO ControlerListenerManagerImpl:172 [it.100] all ControlerIterationEndsListeners called.
2023-04-06T12:25:21,891  INFO AbstractController:182 ### ITERATION 100 ENDS
2023-04-06T12:25:21,891  INFO AbstractController:183 ###################################################
2023-04-06T12:25:21,891  INFO MatsimRuntimeModifications:80 S H U T D O W N   ---   start shutdown.
2023-04-06T12:25:21,891  INFO ControlerListenerManagerImpl:122 calling notifyShutdown on org.matsim.core.controler.corelisteners.EventsHandlingImpl
2023-04-06T12:25:21,891  INFO ControlerListenerManagerImpl:122 calling notifyShutdown on org.matsim.core.controler.corelisteners.DumpDataAtEndImpl
2023-04-06T12:25:21,892  INFO Counter:70 [PopulationWriter] dumped person # 1
2023-04-06T12:25:21,892  INFO Counter:70 [PopulationWriter] dumped person # 2
2023-04-06T12:25:21,892  INFO Counter:70 [PopulationWriter] dumped person # 4
2023-04-06T12:25:21,893  INFO Counter:70 [PopulationWriter] dumped person # 8
2023-04-06T12:25:21,894  INFO Counter:70 [PopulationWriter] dumped person # 16
2023-04-06T12:25:21,895  INFO Counter:70 [PopulationWriter] dumped person # 32
2023-04-06T12:25:21,899  INFO Counter:70 [PopulationWriter] dumped person # 64
2023-04-06T12:25:21,906  INFO Counter:70 [PopulationWriter] dumped person # 128
2023-04-06T12:25:21,920  INFO Counter:70 [PopulationWriter] dumped person # 256
2023-04-06T12:25:21,947  INFO Counter:70 [PopulationWriter] dumped person # 512
2023-04-06T12:25:22,002  INFO Counter:70 [PopulationWriter] dumped person # 1024
2023-04-06T12:25:22,021  INFO PopulationWriter:145 Population written to: ./output/output_plans.xml.gz
2023-04-06T12:25:22,022  INFO Counter:75 [PopulationWriter] dumped person # 1200
2023-04-06T12:25:22,023  INFO NetworkWriter:70 Writing network to file: ./output/output_network.xml.gz...
2023-04-06T12:25:22,038  INFO NetworkWriter:73 done.
2023-04-06T12:25:22,046  INFO Config:602 setting context to [file:/C:/Users/panos_000/Desktop/bicycle/]
2023-04-06T12:25:22,048  INFO Config:602 setting context to [file:/C:/Users/panos_000/Desktop/bicycle/]
2023-04-06T12:25:22,050  INFO Config:602 setting context to [file:/C:/Users/panos_000/Desktop/bicycle/]
2023-04-06T12:25:22,052  INFO Config:602 setting context to [file:/C:/Users/panos_000/Desktop/bicycle/]
2023-04-06T12:25:22,053  INFO Config:602 setting context to [file:/C:/Users/panos_000/Desktop/bicycle/]
2023-04-06T12:25:22,055  INFO Config:602 setting context to [file:/C:/Users/panos_000/Desktop/bicycle/]
2023-04-06T12:25:22,061  INFO Config:602 setting context to [file:/C:/Users/panos_000/Desktop/bicycle/]
2023-04-06T12:25:22,062  INFO Config:602 setting context to [file:/C:/Users/panos_000/Desktop/bicycle/]
2023-04-06T12:25:22,063  INFO Config:602 setting context to [file:/C:/Users/panos_000/Desktop/bicycle/]
2023-04-06T12:25:22,065  INFO Config:602 setting context to [file:/C:/Users/panos_000/Desktop/bicycle/]
2023-04-06T12:25:22,066  INFO Config:602 setting context to [file:/C:/Users/panos_000/Desktop/bicycle/]
2023-04-06T12:25:22,067  INFO Config:602 setting context to [file:/C:/Users/panos_000/Desktop/bicycle/]
2023-04-06T12:25:22,068  INFO Config:602 setting context to [file:/C:/Users/panos_000/Desktop/bicycle/]
2023-04-06T12:25:22,069  INFO Config:602 setting context to [file:/C:/Users/panos_000/Desktop/bicycle/]
2023-04-06T12:25:22,070  INFO Config:602 setting context to [file:/C:/Users/panos_000/Desktop/bicycle/]
2023-04-06T12:25:22,074  INFO Config:602 setting context to [file:/C:/Users/panos_000/Desktop/bicycle/]
2023-04-06T12:25:22,075  INFO Config:602 setting context to [file:/C:/Users/panos_000/Desktop/bicycle/]
2023-04-06T12:25:22,077  INFO Config:602 setting context to [file:/C:/Users/panos_000/Desktop/bicycle/]
2023-04-06T12:25:22,078  INFO Config:602 setting context to [file:/C:/Users/panos_000/Desktop/bicycle/]
2023-04-06T12:25:22,084  INFO Config:602 setting context to [file:/C:/Users/panos_000/Desktop/bicycle/]
2023-04-06T12:25:22,085  INFO Config:602 setting context to [file:/C:/Users/panos_000/Desktop/bicycle/]
2023-04-06T12:25:22,087  INFO Config:602 setting context to [file:/C:/Users/panos_000/Desktop/bicycle/]
2023-04-06T12:25:22,088  INFO Config:602 setting context to [file:/C:/Users/panos_000/Desktop/bicycle/]
2023-04-06T12:25:22,089  INFO Config:602 setting context to [file:/C:/Users/panos_000/Desktop/bicycle/]
2023-04-06T12:25:22,091  INFO Config:602 setting context to [file:/C:/Users/panos_000/Desktop/bicycle/]
2023-04-06T12:25:22,092  INFO Config:602 setting context to [file:/C:/Users/panos_000/Desktop/bicycle/]
2023-04-06T12:25:22,092  INFO Config:602 setting context to [file:/C:/Users/panos_000/Desktop/bicycle/]
2023-04-06T12:25:22,096  INFO MatsimVehicleWriter:55 about to write vehicles to: ./output/output_vehicles.xml.gz
2023-04-06T12:25:22,096  INFO VehicleWriterV2:64 about to write vehicles to: ./output/output_vehicles.xml.gz
2023-04-06T12:25:22,110  INFO MatsimVehicleWriter:55 about to write vehicles to: ./output/output_allVehicles.xml.gz
2023-04-06T12:25:22,110  INFO VehicleWriterV2:64 about to write vehicles to: ./output/output_allVehicles.xml.gz
2023-04-06T12:25:22,119  INFO HouseholdsWriterV10:67 about to write  households to: ./output/output_households.xml.gz
2023-04-06T12:25:22,120  INFO Counter:75 [HouseholdsWriter] wrote household # 0
2023-04-06T12:25:22,131  INFO ControlerListenerManagerImpl:127 calling notifyShutdown on org.matsim.analysis.ScoreStatsControlerListener
2023-04-06T12:25:22,131  INFO ControlerListenerManagerImpl:127 calling notifyShutdown on org.matsim.analysis.IterationTravelStatsControlerListener
2023-04-06T12:25:22,132  INFO IterationTravelStatsControlerListener:109 Writing all Person and Attributes to personscsv
2023-04-06T12:25:22,140  INFO IterationTravelStatsControlerListener:153 ...done
2023-04-06T12:25:22,140  INFO ControlerListenerManagerImpl:130 all ControlerShutdownListeners called.
2023-04-06T12:25:22,140  INFO MatsimRuntimeModifications:103 S H U T D O W N   ---   shutdown completed.
2023-04-06T12:25:22,140  INFO OutputDirectoryLogging:171 closing the logfile, i.e. messages sent to the logger after this message are not written to the logfile.
